version 2
run General-0-20210611-20:54:51-10908
attr configname General
attr datetime 20210611-20:54:51
attr experiment General
attr inifile loRaNetworkTest.ini
attr iterationvars "$0=\"avg\""
attr iterationvarsf avg-
attr measurement "$0=\"avg\""
attr network LoRaNetworkTest
attr processid 10908
attr repetition 0
attr replication #0
attr resultdir results
attr runnumber 0
attr seedset 0
param **.numberOfGateways 1
param **.loRaGW[0].numUdpApps 1
param **.loRaGW[0].packetForwarder.localPort 2000
param **.loRaGW[0].packetForwarder.destPort 1000
param **.loRaGW[0].packetForwarder.destAddresses "\"networkServer\""
param **.loRaGW[0].packetForwarder.indexNumber 0
param **.loRaGW[1].numUdpApps 1
param **.loRaGW[1].packetForwarder.localPort 2000
param **.loRaGW[1].packetForwarder.destPort 1000
param **.loRaGW[1].packetForwarder.destAddresses "\"networkServer\""
param **.loRaGW[1].packetForwarder.indexNumber 1
param **.networkServer.numUdpApps 1
param **.networkServer.**.evaluateADRinServer false
param **.networkServer.udpApp[0].typename "\"NetworkServerApp\""
param **.networkServer.udpApp[0].destAddresses "\"loRaGW[0]\""
param **.networkServer.udpApp[0].destPort 2000
param **.networkServer.udpApp[0].localPort 1000
param **.networkServer.udpApp[0].adrMethod "\"avg\""
param **.numberOfNodes 30
param **.numberOfPacketsToSend 0
param **.timeToFirstPacket exponential(100s)
param **.timeToNextPacket exponential(100s)
param **.alohaChannelModel false
param **.loRaNodes[*].**.initFromDisplayString false
param **.loRaNodes[*].**.evaluateADRinNode false
param **.loRaNodes[*].**initialLoRaSF 12
param **.loRaNodes[*].**initialLoRaBW "250 kHz"
param **.loRaNodes[*].**initialLoRaCR 4
param **.loRaNodes[*].**initialLoRaTP "3 dBm"
param **.loRaNodes[*].**.initialX "uniform(0m, 480m)"
param **.loRaNodes[*].**.initialY "uniform(0m, 480m)"
param **.LoRaGWNic.radio.iAmGateway true
param **.loRaGW[*].**.initFromDisplayString false
param **.loRaGW[0].**.initialX 240m
param **.loRaGW[0].**.initialY 240m
param **.loRaNodes[*].LoRaNic.radio.energyConsumerType "\"LoRaEnergyConsumer\""
param **.loRaNodes[*].**.energySourceModule "\"IdealEpEnergyStorage\""
param **.loRaNodes[*].LoRaNic.radio.energyConsumer.configFile "xmldoc(\"energyConsumptionParameters.xml\")"
param **.sigma 0
param **.constraintAreaMinX 0m
param **.constraintAreaMinY 0m
param **.constraintAreaMinZ 0m
param **.constraintAreaMaxX 480m
param **.constraintAreaMaxY 480m
param **.constraintAreaMaxZ 0m
param LoRaNetworkTest.**.radio.separateTransmissionParts false
param LoRaNetworkTest.**.radio.separateReceptionParts false
param **.delayer.config "xmldoc(\"cloudDelays.xml\")"
param **.radio.radioMediumModule "\"LoRaMedium\""
param **.LoRaMedium.pathLossType "\"LoRaLogNormalShadowing\""
param **.minInterferenceTime 0s
param **.displayAddresses false

scalar LoRaNetworkTest.loRaNodes[0].LoRaNic.mac numRetry 0
scalar LoRaNetworkTest.loRaNodes[0].LoRaNic.mac numSentWithoutRetry 0
scalar LoRaNetworkTest.loRaNodes[0].LoRaNic.mac numGivenUp 0
scalar LoRaNetworkTest.loRaNodes[0].LoRaNic.mac numSent 753
scalar LoRaNetworkTest.loRaNodes[0].LoRaNic.mac numReceived 0
scalar LoRaNetworkTest.loRaNodes[0].LoRaNic.mac numSentBroadcast 0
scalar LoRaNetworkTest.loRaNodes[0].LoRaNic.mac numReceivedBroadcast 0
scalar LoRaNetworkTest.loRaNodes[0].LoRaNic.radio.transmitter LoRaTransmissionCreated:count 441
attr source LoRaTransmissionCreated
scalar LoRaNetworkTest.loRaNodes[0].LoRaNic.radio.receiver numCollisions 0
scalar LoRaNetworkTest.loRaNodes[0].LoRaNic.radio.receiver rcvBelowSensitivity 105
scalar LoRaNetworkTest.loRaNodes[0].LoRaNic.radio.receiver LoRaReceptionCollision:count 0
attr source LoRaReceptionCollision
scalar LoRaNetworkTest.loRaNodes[0].LoRaNic.radio.energyConsumer totalEnergyConsumed 101.00808142116
statistic LoRaNetworkTest.loRaNodes[0].LoRaNic.radio symbolErrorRate:histogram
field count 0
field mean nan
field stddev nan
field min nan
field max nan
field sum 0
field sqrsum 0
attr source symbolErrorRate
attr title "Symbol error rate, histogram"
bin	-inf	0
bin	-0.5	0
bin	-0.46666666666667	0
bin	-0.43333333333333	0
bin	-0.4	0
bin	-0.36666666666667	0
bin	-0.33333333333333	0
bin	-0.3	0
bin	-0.26666666666667	0
bin	-0.23333333333333	0
bin	-0.2	0
bin	-0.16666666666667	0
bin	-0.13333333333333	0
bin	-0.1	0
bin	-0.066666666666667	0
bin	-0.033333333333333	0
bin	-6.9388939039072e-018	0
bin	0.033333333333333	0
bin	0.066666666666667	0
bin	0.1	0
bin	0.13333333333333	0
bin	0.16666666666667	0
bin	0.2	0
bin	0.23333333333333	0
bin	0.26666666666667	0
bin	0.3	0
bin	0.33333333333333	0
bin	0.36666666666667	0
bin	0.4	0
bin	0.43333333333333	0
bin	0.46666666666667	0
bin	0.5	0
statistic LoRaNetworkTest.loRaNodes[0].LoRaNic.radio bitErrorRate:histogram
field count 0
field mean nan
field stddev nan
field min nan
field max nan
field sum 0
field sqrsum 0
attr source bitErrorRate
attr title "Bit error rate, histogram"
bin	-inf	0
bin	-0.5	0
bin	-0.46666666666667	0
bin	-0.43333333333333	0
bin	-0.4	0
bin	-0.36666666666667	0
bin	-0.33333333333333	0
bin	-0.3	0
bin	-0.26666666666667	0
bin	-0.23333333333333	0
bin	-0.2	0
bin	-0.16666666666667	0
bin	-0.13333333333333	0
bin	-0.1	0
bin	-0.066666666666667	0
bin	-0.033333333333333	0
bin	-6.9388939039072e-018	0
bin	0.033333333333333	0
bin	0.066666666666667	0
bin	0.1	0
bin	0.13333333333333	0
bin	0.16666666666667	0
bin	0.2	0
bin	0.23333333333333	0
bin	0.26666666666667	0
bin	0.3	0
bin	0.33333333333333	0
bin	0.36666666666667	0
bin	0.4	0
bin	0.43333333333333	0
bin	0.46666666666667	0
bin	0.5	0
statistic LoRaNetworkTest.loRaNodes[0].LoRaNic.radio packetErrorRate:histogram
field count 0
field mean nan
field stddev nan
field min nan
field max nan
field sum 0
field sqrsum 0
attr source packetErrorRate
attr title "Packet error rate, histogram"
bin	-inf	0
bin	-0.5	0
bin	-0.46666666666667	0
bin	-0.43333333333333	0
bin	-0.4	0
bin	-0.36666666666667	0
bin	-0.33333333333333	0
bin	-0.3	0
bin	-0.26666666666667	0
bin	-0.23333333333333	0
bin	-0.2	0
bin	-0.16666666666667	0
bin	-0.13333333333333	0
bin	-0.1	0
bin	-0.066666666666667	0
bin	-0.033333333333333	0
bin	-6.9388939039072e-018	0
bin	0.033333333333333	0
bin	0.066666666666667	0
bin	0.1	0
bin	0.13333333333333	0
bin	0.16666666666667	0
bin	0.2	0
bin	0.23333333333333	0
bin	0.26666666666667	0
bin	0.3	0
bin	0.33333333333333	0
bin	0.36666666666667	0
bin	0.4	0
bin	0.43333333333333	0
bin	0.46666666666667	0
bin	0.5	0
statistic LoRaNetworkTest.loRaNodes[0].LoRaNic.radio minSNIR:histogram
field count 27
field mean 2.2722191001579
field stddev 2.0830359151436
field min 1.1238137839833
field max 9.3962287381673
field sum 61.349915704264
field sqrsum 252.21545447454
attr source minSNIR
attr title "Min SNIR, histogram"
bin	-inf	0
bin	-3.0123936931087	0
bin	-2.4608993628298	0
bin	-1.9094050325509	0
bin	-1.3579107022719	0
bin	-0.80641637199299	0
bin	-0.25492204171406	0
bin	0.29657228856487	0
bin	0.84806661884381	4
bin	1.3995609491227	17
bin	1.9510552794017	3
bin	2.5025496096806	1
bin	3.0540439399595	0
bin	3.6055382702385	0
bin	4.1570326005174	0
bin	4.7085269307964	0
bin	5.2600212610753	0
bin	5.8115155913542	0
bin	6.3630099216332	0
bin	6.9145042519121	0
bin	7.465998582191	0
bin	8.01749291247	0
bin	8.5689872427489	0
bin	9.1204815730278	2
bin	9.6719759033068	0
bin	10.223470233586	0
bin	10.774964563865	0
bin	11.326458894144	0
bin	11.877953224423	0
bin	12.429447554701	0
bin	12.98094188498	0
bin	13.532436215259	0
scalar LoRaNetworkTest.loRaNodes[0].LoRaNic.radio transmissionState:count 1764
attr interpolationmode sample-hold
attr source transmissionStateChanged
attr title "Radio transmission state, count"
scalar LoRaNetworkTest.loRaNodes[0].LoRaNic.radio receptionState:count 2112
attr interpolationmode sample-hold
attr source receptionStateChanged
attr title "Radio reception state, count"
scalar LoRaNetworkTest.loRaNodes[0].LoRaNic.radio radioMode:count 2880
attr interpolationmode sample-hold
attr source radioModeChanged
attr title "Radio mode, count"
scalar LoRaNetworkTest.loRaNodes[0].SimpleLoRaApp positionX 263.43048110604
scalar LoRaNetworkTest.loRaNodes[0].SimpleLoRaApp positionY 284.56541586667
scalar LoRaNetworkTest.loRaNodes[0].SimpleLoRaApp finalTP 3
scalar LoRaNetworkTest.loRaNodes[0].SimpleLoRaApp finalSF 12
scalar LoRaNetworkTest.loRaNodes[0].SimpleLoRaApp sentPackets 441
scalar LoRaNetworkTest.loRaNodes[0].SimpleLoRaApp receivedADRCommands 0
scalar LoRaNetworkTest.loRaNodes[0].SimpleLoRaApp LoRa_AppPacketSent:count 441
attr source LoRa_AppPacketSent
scalar LoRaNetworkTest.loRaNodes[1].LoRaNic.mac numRetry 0
scalar LoRaNetworkTest.loRaNodes[1].LoRaNic.mac numSentWithoutRetry 0
scalar LoRaNetworkTest.loRaNodes[1].LoRaNic.mac numGivenUp 0
scalar LoRaNetworkTest.loRaNodes[1].LoRaNic.mac numSent 762
scalar LoRaNetworkTest.loRaNodes[1].LoRaNic.mac numReceived 0
scalar LoRaNetworkTest.loRaNodes[1].LoRaNic.mac numSentBroadcast 0
scalar LoRaNetworkTest.loRaNodes[1].LoRaNic.mac numReceivedBroadcast 0
scalar LoRaNetworkTest.loRaNodes[1].LoRaNic.radio.transmitter LoRaTransmissionCreated:count 445
attr source LoRaTransmissionCreated
scalar LoRaNetworkTest.loRaNodes[1].LoRaNic.radio.receiver numCollisions 0
scalar LoRaNetworkTest.loRaNodes[1].LoRaNic.radio.receiver rcvBelowSensitivity 111
scalar LoRaNetworkTest.loRaNodes[1].LoRaNic.radio.receiver LoRaReceptionCollision:count 0
attr source LoRaReceptionCollision
scalar LoRaNetworkTest.loRaNodes[1].LoRaNic.radio.energyConsumer totalEnergyConsumed 102.15564127975
statistic LoRaNetworkTest.loRaNodes[1].LoRaNic.radio symbolErrorRate:histogram
field count 0
field mean nan
field stddev nan
field min nan
field max nan
field sum 0
field sqrsum 0
attr source symbolErrorRate
attr title "Symbol error rate, histogram"
bin	-inf	0
bin	-0.5	0
bin	-0.46666666666667	0
bin	-0.43333333333333	0
bin	-0.4	0
bin	-0.36666666666667	0
bin	-0.33333333333333	0
bin	-0.3	0
bin	-0.26666666666667	0
bin	-0.23333333333333	0
bin	-0.2	0
bin	-0.16666666666667	0
bin	-0.13333333333333	0
bin	-0.1	0
bin	-0.066666666666667	0
bin	-0.033333333333333	0
bin	-6.9388939039072e-018	0
bin	0.033333333333333	0
bin	0.066666666666667	0
bin	0.1	0
bin	0.13333333333333	0
bin	0.16666666666667	0
bin	0.2	0
bin	0.23333333333333	0
bin	0.26666666666667	0
bin	0.3	0
bin	0.33333333333333	0
bin	0.36666666666667	0
bin	0.4	0
bin	0.43333333333333	0
bin	0.46666666666667	0
bin	0.5	0
statistic LoRaNetworkTest.loRaNodes[1].LoRaNic.radio bitErrorRate:histogram
field count 0
field mean nan
field stddev nan
field min nan
field max nan
field sum 0
field sqrsum 0
attr source bitErrorRate
attr title "Bit error rate, histogram"
bin	-inf	0
bin	-0.5	0
bin	-0.46666666666667	0
bin	-0.43333333333333	0
bin	-0.4	0
bin	-0.36666666666667	0
bin	-0.33333333333333	0
bin	-0.3	0
bin	-0.26666666666667	0
bin	-0.23333333333333	0
bin	-0.2	0
bin	-0.16666666666667	0
bin	-0.13333333333333	0
bin	-0.1	0
bin	-0.066666666666667	0
bin	-0.033333333333333	0
bin	-6.9388939039072e-018	0
bin	0.033333333333333	0
bin	0.066666666666667	0
bin	0.1	0
bin	0.13333333333333	0
bin	0.16666666666667	0
bin	0.2	0
bin	0.23333333333333	0
bin	0.26666666666667	0
bin	0.3	0
bin	0.33333333333333	0
bin	0.36666666666667	0
bin	0.4	0
bin	0.43333333333333	0
bin	0.46666666666667	0
bin	0.5	0
statistic LoRaNetworkTest.loRaNodes[1].LoRaNic.radio packetErrorRate:histogram
field count 0
field mean nan
field stddev nan
field min nan
field max nan
field sum 0
field sqrsum 0
attr source packetErrorRate
attr title "Packet error rate, histogram"
bin	-inf	0
bin	-0.5	0
bin	-0.46666666666667	0
bin	-0.43333333333333	0
bin	-0.4	0
bin	-0.36666666666667	0
bin	-0.33333333333333	0
bin	-0.3	0
bin	-0.26666666666667	0
bin	-0.23333333333333	0
bin	-0.2	0
bin	-0.16666666666667	0
bin	-0.13333333333333	0
bin	-0.1	0
bin	-0.066666666666667	0
bin	-0.033333333333333	0
bin	-6.9388939039072e-018	0
bin	0.033333333333333	0
bin	0.066666666666667	0
bin	0.1	0
bin	0.13333333333333	0
bin	0.16666666666667	0
bin	0.2	0
bin	0.23333333333333	0
bin	0.26666666666667	0
bin	0.3	0
bin	0.33333333333333	0
bin	0.36666666666667	0
bin	0.4	0
bin	0.43333333333333	0
bin	0.46666666666667	0
bin	0.5	0
statistic LoRaNetworkTest.loRaNodes[1].LoRaNic.radio minSNIR:histogram
field count 16
field mean 2.3777398323882
field stddev 0.77491408364727
field min 1.4529725778123
field max 3.8411407965125
field sum 38.043837318211
field sqrsum 99.465724923932
attr source minSNIR
attr title "Min SNIR, histogram"
bin	-inf	0
bin	0.25888846846211	0
bin	0.41809968304213	0
bin	0.57731089762215	0
bin	0.73652211220217	0
bin	0.89573332678218	0
bin	1.0549445413622	0
bin	1.2141557559422	0
bin	1.3733669705222	2
bin	1.5325781851023	0
bin	1.6917893996823	2
bin	1.8510006142623	0
bin	2.0102118288423	0
bin	2.1694230434223	9
bin	2.3286342580024	0
bin	2.4878454725824	0
bin	2.6470566871624	0
bin	2.8062679017424	0
bin	2.9654791163224	0
bin	3.1246903309025	0
bin	3.2839015454825	0
bin	3.4431127600625	0
bin	3.6023239746425	0
bin	3.7615351892225	3
bin	3.9207464038026	0
bin	4.0799576183826	0
bin	4.2391688329626	0
bin	4.3983800475426	0
bin	4.5575912621226	0
bin	4.7168024767027	0
bin	4.8760136912827	0
bin	5.0352249058627	0
scalar LoRaNetworkTest.loRaNodes[1].LoRaNic.radio transmissionState:count 1780
attr interpolationmode sample-hold
attr source transmissionStateChanged
attr title "Radio transmission state, count"
scalar LoRaNetworkTest.loRaNodes[1].LoRaNic.radio receptionState:count 2128
attr interpolationmode sample-hold
attr source receptionStateChanged
attr title "Radio reception state, count"
scalar LoRaNetworkTest.loRaNodes[1].LoRaNic.radio radioMode:count 2914
attr interpolationmode sample-hold
attr source radioModeChanged
attr title "Radio mode, count"
scalar LoRaNetworkTest.loRaNodes[1].SimpleLoRaApp positionX 405.24755716324
scalar LoRaNetworkTest.loRaNodes[1].SimpleLoRaApp positionY 289.32641778141
scalar LoRaNetworkTest.loRaNodes[1].SimpleLoRaApp finalTP 3
scalar LoRaNetworkTest.loRaNodes[1].SimpleLoRaApp finalSF 12
scalar LoRaNetworkTest.loRaNodes[1].SimpleLoRaApp sentPackets 445
scalar LoRaNetworkTest.loRaNodes[1].SimpleLoRaApp receivedADRCommands 0
scalar LoRaNetworkTest.loRaNodes[1].SimpleLoRaApp LoRa_AppPacketSent:count 445
attr source LoRa_AppPacketSent
scalar LoRaNetworkTest.loRaNodes[2].LoRaNic.mac numRetry 0
scalar LoRaNetworkTest.loRaNodes[2].LoRaNic.mac numSentWithoutRetry 0
scalar LoRaNetworkTest.loRaNodes[2].LoRaNic.mac numGivenUp 0
scalar LoRaNetworkTest.loRaNodes[2].LoRaNic.mac numSent 767
scalar LoRaNetworkTest.loRaNodes[2].LoRaNic.mac numReceived 0
scalar LoRaNetworkTest.loRaNodes[2].LoRaNic.mac numSentBroadcast 0
scalar LoRaNetworkTest.loRaNodes[2].LoRaNic.mac numReceivedBroadcast 0
scalar LoRaNetworkTest.loRaNodes[2].LoRaNic.radio.transmitter LoRaTransmissionCreated:count 450
attr source LoRaTransmissionCreated
scalar LoRaNetworkTest.loRaNodes[2].LoRaNic.radio.receiver numCollisions 0
scalar LoRaNetworkTest.loRaNodes[2].LoRaNic.radio.receiver rcvBelowSensitivity 112
scalar LoRaNetworkTest.loRaNodes[2].LoRaNic.radio.receiver LoRaReceptionCollision:count 0
attr source LoRaReceptionCollision
scalar LoRaNetworkTest.loRaNodes[2].LoRaNic.radio.energyConsumer totalEnergyConsumed 103.00336450801
statistic LoRaNetworkTest.loRaNodes[2].LoRaNic.radio symbolErrorRate:histogram
field count 0
field mean nan
field stddev nan
field min nan
field max nan
field sum 0
field sqrsum 0
attr source symbolErrorRate
attr title "Symbol error rate, histogram"
bin	-inf	0
bin	-0.5	0
bin	-0.46666666666667	0
bin	-0.43333333333333	0
bin	-0.4	0
bin	-0.36666666666667	0
bin	-0.33333333333333	0
bin	-0.3	0
bin	-0.26666666666667	0
bin	-0.23333333333333	0
bin	-0.2	0
bin	-0.16666666666667	0
bin	-0.13333333333333	0
bin	-0.1	0
bin	-0.066666666666667	0
bin	-0.033333333333333	0
bin	-6.9388939039072e-018	0
bin	0.033333333333333	0
bin	0.066666666666667	0
bin	0.1	0
bin	0.13333333333333	0
bin	0.16666666666667	0
bin	0.2	0
bin	0.23333333333333	0
bin	0.26666666666667	0
bin	0.3	0
bin	0.33333333333333	0
bin	0.36666666666667	0
bin	0.4	0
bin	0.43333333333333	0
bin	0.46666666666667	0
bin	0.5	0
statistic LoRaNetworkTest.loRaNodes[2].LoRaNic.radio bitErrorRate:histogram
field count 0
field mean nan
field stddev nan
field min nan
field max nan
field sum 0
field sqrsum 0
attr source bitErrorRate
attr title "Bit error rate, histogram"
bin	-inf	0
bin	-0.5	0
bin	-0.46666666666667	0
bin	-0.43333333333333	0
bin	-0.4	0
bin	-0.36666666666667	0
bin	-0.33333333333333	0
bin	-0.3	0
bin	-0.26666666666667	0
bin	-0.23333333333333	0
bin	-0.2	0
bin	-0.16666666666667	0
bin	-0.13333333333333	0
bin	-0.1	0
bin	-0.066666666666667	0
bin	-0.033333333333333	0
bin	-6.9388939039072e-018	0
bin	0.033333333333333	0
bin	0.066666666666667	0
bin	0.1	0
bin	0.13333333333333	0
bin	0.16666666666667	0
bin	0.2	0
bin	0.23333333333333	0
bin	0.26666666666667	0
bin	0.3	0
bin	0.33333333333333	0
bin	0.36666666666667	0
bin	0.4	0
bin	0.43333333333333	0
bin	0.46666666666667	0
bin	0.5	0
statistic LoRaNetworkTest.loRaNodes[2].LoRaNic.radio packetErrorRate:histogram
field count 0
field mean nan
field stddev nan
field min nan
field max nan
field sum 0
field sqrsum 0
attr source packetErrorRate
attr title "Packet error rate, histogram"
bin	-inf	0
bin	-0.5	0
bin	-0.46666666666667	0
bin	-0.43333333333333	0
bin	-0.4	0
bin	-0.36666666666667	0
bin	-0.33333333333333	0
bin	-0.3	0
bin	-0.26666666666667	0
bin	-0.23333333333333	0
bin	-0.2	0
bin	-0.16666666666667	0
bin	-0.13333333333333	0
bin	-0.1	0
bin	-0.066666666666667	0
bin	-0.033333333333333	0
bin	-6.9388939039072e-018	0
bin	0.033333333333333	0
bin	0.066666666666667	0
bin	0.1	0
bin	0.13333333333333	0
bin	0.16666666666667	0
bin	0.2	0
bin	0.23333333333333	0
bin	0.26666666666667	0
bin	0.3	0
bin	0.33333333333333	0
bin	0.36666666666667	0
bin	0.4	0
bin	0.43333333333333	0
bin	0.46666666666667	0
bin	0.5	0
statistic LoRaNetworkTest.loRaNodes[2].LoRaNic.radio minSNIR:histogram
field count 26
field mean 5.05805018759
field stddev 6.1079597164386
field min 1.0877074415167
field max 15.962474010243
field sum 131.50930487734
field sqrsum 1597.8599616456
attr source minSNIR
attr title "Min SNIR, histogram"
bin	-inf	0
bin	-6.3496758428464	0
bin	-5.3580247382647	0
bin	-4.3663736336829	0
bin	-3.3747225291012	0
bin	-2.3830714245194	0
bin	-1.3914203199377	0
bin	-0.3997692153559	0
bin	0.59188188922585	9
bin	1.5835329938076	11
bin	2.5751840983894	0
bin	3.5668352029711	0
bin	4.5584863075529	0
bin	5.5501374121346	0
bin	6.5417885167164	0
bin	7.5334396212981	0
bin	8.5250907258799	0
bin	9.5167418304616	0
bin	10.508392935043	0
bin	11.500044039625	0
bin	12.491695144207	0
bin	13.483346248789	0
bin	14.47499735337	0
bin	15.466648457952	6
bin	16.458299562534	0
bin	17.449950667116	0
bin	18.441601771697	0
bin	19.433252876279	0
bin	20.424903980861	0
bin	21.416555085443	0
bin	22.408206190024	0
bin	23.399857294606	0
scalar LoRaNetworkTest.loRaNodes[2].LoRaNic.radio transmissionState:count 1800
attr interpolationmode sample-hold
attr source transmissionStateChanged
attr title "Radio transmission state, count"
scalar LoRaNetworkTest.loRaNodes[2].LoRaNic.radio receptionState:count 2156
attr interpolationmode sample-hold
attr source receptionStateChanged
attr title "Radio reception state, count"
scalar LoRaNetworkTest.loRaNodes[2].LoRaNic.radio radioMode:count 2941
attr interpolationmode sample-hold
attr source radioModeChanged
attr title "Radio mode, count"
scalar LoRaNetworkTest.loRaNodes[2].SimpleLoRaApp positionX 261.54392514378
scalar LoRaNetworkTest.loRaNodes[2].SimpleLoRaApp positionY 406.68083388358
scalar LoRaNetworkTest.loRaNodes[2].SimpleLoRaApp finalTP 3
scalar LoRaNetworkTest.loRaNodes[2].SimpleLoRaApp finalSF 12
scalar LoRaNetworkTest.loRaNodes[2].SimpleLoRaApp sentPackets 450
scalar LoRaNetworkTest.loRaNodes[2].SimpleLoRaApp receivedADRCommands 0
scalar LoRaNetworkTest.loRaNodes[2].SimpleLoRaApp LoRa_AppPacketSent:count 450
attr source LoRa_AppPacketSent
scalar LoRaNetworkTest.loRaNodes[3].LoRaNic.mac numRetry 0
scalar LoRaNetworkTest.loRaNodes[3].LoRaNic.mac numSentWithoutRetry 0
scalar LoRaNetworkTest.loRaNodes[3].LoRaNic.mac numGivenUp 0
scalar LoRaNetworkTest.loRaNodes[3].LoRaNic.mac numSent 759
scalar LoRaNetworkTest.loRaNodes[3].LoRaNic.mac numReceived 0
scalar LoRaNetworkTest.loRaNodes[3].LoRaNic.mac numSentBroadcast 0
scalar LoRaNetworkTest.loRaNodes[3].LoRaNic.mac numReceivedBroadcast 0
scalar LoRaNetworkTest.loRaNodes[3].LoRaNic.radio.transmitter LoRaTransmissionCreated:count 429
attr source LoRaTransmissionCreated
scalar LoRaNetworkTest.loRaNodes[3].LoRaNic.radio.receiver numCollisions 0
scalar LoRaNetworkTest.loRaNodes[3].LoRaNic.radio.receiver rcvBelowSensitivity 93
scalar LoRaNetworkTest.loRaNodes[3].LoRaNic.radio.receiver LoRaReceptionCollision:count 0
attr source LoRaReceptionCollision
scalar LoRaNetworkTest.loRaNodes[3].LoRaNic.radio.energyConsumer totalEnergyConsumed 101.8578834391
statistic LoRaNetworkTest.loRaNodes[3].LoRaNic.radio symbolErrorRate:histogram
field count 0
field mean nan
field stddev nan
field min nan
field max nan
field sum 0
field sqrsum 0
attr source symbolErrorRate
attr title "Symbol error rate, histogram"
bin	-inf	0
bin	-0.5	0
bin	-0.46666666666667	0
bin	-0.43333333333333	0
bin	-0.4	0
bin	-0.36666666666667	0
bin	-0.33333333333333	0
bin	-0.3	0
bin	-0.26666666666667	0
bin	-0.23333333333333	0
bin	-0.2	0
bin	-0.16666666666667	0
bin	-0.13333333333333	0
bin	-0.1	0
bin	-0.066666666666667	0
bin	-0.033333333333333	0
bin	-6.9388939039072e-018	0
bin	0.033333333333333	0
bin	0.066666666666667	0
bin	0.1	0
bin	0.13333333333333	0
bin	0.16666666666667	0
bin	0.2	0
bin	0.23333333333333	0
bin	0.26666666666667	0
bin	0.3	0
bin	0.33333333333333	0
bin	0.36666666666667	0
bin	0.4	0
bin	0.43333333333333	0
bin	0.46666666666667	0
bin	0.5	0
statistic LoRaNetworkTest.loRaNodes[3].LoRaNic.radio bitErrorRate:histogram
field count 0
field mean nan
field stddev nan
field min nan
field max nan
field sum 0
field sqrsum 0
attr source bitErrorRate
attr title "Bit error rate, histogram"
bin	-inf	0
bin	-0.5	0
bin	-0.46666666666667	0
bin	-0.43333333333333	0
bin	-0.4	0
bin	-0.36666666666667	0
bin	-0.33333333333333	0
bin	-0.3	0
bin	-0.26666666666667	0
bin	-0.23333333333333	0
bin	-0.2	0
bin	-0.16666666666667	0
bin	-0.13333333333333	0
bin	-0.1	0
bin	-0.066666666666667	0
bin	-0.033333333333333	0
bin	-6.9388939039072e-018	0
bin	0.033333333333333	0
bin	0.066666666666667	0
bin	0.1	0
bin	0.13333333333333	0
bin	0.16666666666667	0
bin	0.2	0
bin	0.23333333333333	0
bin	0.26666666666667	0
bin	0.3	0
bin	0.33333333333333	0
bin	0.36666666666667	0
bin	0.4	0
bin	0.43333333333333	0
bin	0.46666666666667	0
bin	0.5	0
statistic LoRaNetworkTest.loRaNodes[3].LoRaNic.radio packetErrorRate:histogram
field count 0
field mean nan
field stddev nan
field min nan
field max nan
field sum 0
field sqrsum 0
attr source packetErrorRate
attr title "Packet error rate, histogram"
bin	-inf	0
bin	-0.5	0
bin	-0.46666666666667	0
bin	-0.43333333333333	0
bin	-0.4	0
bin	-0.36666666666667	0
bin	-0.33333333333333	0
bin	-0.3	0
bin	-0.26666666666667	0
bin	-0.23333333333333	0
bin	-0.2	0
bin	-0.16666666666667	0
bin	-0.13333333333333	0
bin	-0.1	0
bin	-0.066666666666667	0
bin	-0.033333333333333	0
bin	-6.9388939039072e-018	0
bin	0.033333333333333	0
bin	0.066666666666667	0
bin	0.1	0
bin	0.13333333333333	0
bin	0.16666666666667	0
bin	0.2	0
bin	0.23333333333333	0
bin	0.26666666666667	0
bin	0.3	0
bin	0.33333333333333	0
bin	0.36666666666667	0
bin	0.4	0
bin	0.43333333333333	0
bin	0.46666666666667	0
bin	0.5	0
statistic LoRaNetworkTest.loRaNodes[3].LoRaNic.radio minSNIR:histogram
field count 31
field mean 2.6518066568833
field stddev 2.7029297361412
field min 1.0819254278561
field max 9.3962287381673
field sum 82.206006363383
field sqrsum 437.16930966571
attr source minSNIR
attr title "Min SNIR, histogram"
bin	-inf	0
bin	-3.0752262272995	0
bin	-2.5209393399455	0
bin	-1.9666524525914	0
bin	-1.4123655652373	0
bin	-0.85807867788322	0
bin	-0.30379179052914	0
bin	0.25049509682494	0
bin	0.80478198417903	5
bin	1.3590688715331	20
bin	1.9133557588872	0
bin	2.4676426462413	1
bin	3.0219295335954	0
bin	3.5762164209494	0
bin	4.1305033083035	1
bin	4.6847901956576	0
bin	5.2390770830117	0
bin	5.7933639703658	0
bin	6.3476508577198	0
bin	6.9019377450739	0
bin	7.456224632428	0
bin	8.0105115197821	0
bin	8.5647984071362	0
bin	9.1190852944903	4
bin	9.6733721818443	0
bin	10.227659069198	0
bin	10.781945956552	0
bin	11.336232843907	0
bin	11.890519731261	0
bin	12.444806618615	0
bin	12.999093505969	0
bin	13.553380393323	0
scalar LoRaNetworkTest.loRaNodes[3].LoRaNic.radio transmissionState:count 1716
attr interpolationmode sample-hold
attr source transmissionStateChanged
attr title "Radio transmission state, count"
scalar LoRaNetworkTest.loRaNodes[3].LoRaNic.radio receptionState:count 2116
attr interpolationmode sample-hold
attr source receptionStateChanged
attr title "Radio reception state, count"
scalar LoRaNetworkTest.loRaNodes[3].LoRaNic.radio radioMode:count 2843
attr interpolationmode sample-hold
attr source radioModeChanged
attr title "Radio mode, count"
scalar LoRaNetworkTest.loRaNodes[3].SimpleLoRaApp positionX 299.31057427078
scalar LoRaNetworkTest.loRaNodes[3].SimpleLoRaApp positionY 310.02917524427
scalar LoRaNetworkTest.loRaNodes[3].SimpleLoRaApp finalTP 3
scalar LoRaNetworkTest.loRaNodes[3].SimpleLoRaApp finalSF 12
scalar LoRaNetworkTest.loRaNodes[3].SimpleLoRaApp sentPackets 429
scalar LoRaNetworkTest.loRaNodes[3].SimpleLoRaApp receivedADRCommands 0
scalar LoRaNetworkTest.loRaNodes[3].SimpleLoRaApp LoRa_AppPacketSent:count 429
attr source LoRa_AppPacketSent
scalar LoRaNetworkTest.loRaNodes[4].LoRaNic.mac numRetry 0
scalar LoRaNetworkTest.loRaNodes[4].LoRaNic.mac numSentWithoutRetry 0
scalar LoRaNetworkTest.loRaNodes[4].LoRaNic.mac numGivenUp 0
scalar LoRaNetworkTest.loRaNodes[4].LoRaNic.mac numSent 760
scalar LoRaNetworkTest.loRaNodes[4].LoRaNic.mac numReceived 0
scalar LoRaNetworkTest.loRaNodes[4].LoRaNic.mac numSentBroadcast 0
scalar LoRaNetworkTest.loRaNodes[4].LoRaNic.mac numReceivedBroadcast 0
scalar LoRaNetworkTest.loRaNodes[4].LoRaNic.radio.transmitter LoRaTransmissionCreated:count 437
attr source LoRaTransmissionCreated
scalar LoRaNetworkTest.loRaNodes[4].LoRaNic.radio.receiver numCollisions 0
scalar LoRaNetworkTest.loRaNodes[4].LoRaNic.radio.receiver rcvBelowSensitivity 97
scalar LoRaNetworkTest.loRaNodes[4].LoRaNic.radio.receiver LoRaReceptionCollision:count 0
attr source LoRaReceptionCollision
scalar LoRaNetworkTest.loRaNodes[4].LoRaNic.radio.energyConsumer totalEnergyConsumed 101.76831316316
statistic LoRaNetworkTest.loRaNodes[4].LoRaNic.radio symbolErrorRate:histogram
field count 0
field mean nan
field stddev nan
field min nan
field max nan
field sum 0
field sqrsum 0
attr source symbolErrorRate
attr title "Symbol error rate, histogram"
bin	-inf	0
bin	-0.5	0
bin	-0.46666666666667	0
bin	-0.43333333333333	0
bin	-0.4	0
bin	-0.36666666666667	0
bin	-0.33333333333333	0
bin	-0.3	0
bin	-0.26666666666667	0
bin	-0.23333333333333	0
bin	-0.2	0
bin	-0.16666666666667	0
bin	-0.13333333333333	0
bin	-0.1	0
bin	-0.066666666666667	0
bin	-0.033333333333333	0
bin	-6.9388939039072e-018	0
bin	0.033333333333333	0
bin	0.066666666666667	0
bin	0.1	0
bin	0.13333333333333	0
bin	0.16666666666667	0
bin	0.2	0
bin	0.23333333333333	0
bin	0.26666666666667	0
bin	0.3	0
bin	0.33333333333333	0
bin	0.36666666666667	0
bin	0.4	0
bin	0.43333333333333	0
bin	0.46666666666667	0
bin	0.5	0
statistic LoRaNetworkTest.loRaNodes[4].LoRaNic.radio bitErrorRate:histogram
field count 0
field mean nan
field stddev nan
field min nan
field max nan
field sum 0
field sqrsum 0
attr source bitErrorRate
attr title "Bit error rate, histogram"
bin	-inf	0
bin	-0.5	0
bin	-0.46666666666667	0
bin	-0.43333333333333	0
bin	-0.4	0
bin	-0.36666666666667	0
bin	-0.33333333333333	0
bin	-0.3	0
bin	-0.26666666666667	0
bin	-0.23333333333333	0
bin	-0.2	0
bin	-0.16666666666667	0
bin	-0.13333333333333	0
bin	-0.1	0
bin	-0.066666666666667	0
bin	-0.033333333333333	0
bin	-6.9388939039072e-018	0
bin	0.033333333333333	0
bin	0.066666666666667	0
bin	0.1	0
bin	0.13333333333333	0
bin	0.16666666666667	0
bin	0.2	0
bin	0.23333333333333	0
bin	0.26666666666667	0
bin	0.3	0
bin	0.33333333333333	0
bin	0.36666666666667	0
bin	0.4	0
bin	0.43333333333333	0
bin	0.46666666666667	0
bin	0.5	0
statistic LoRaNetworkTest.loRaNodes[4].LoRaNic.radio packetErrorRate:histogram
field count 0
field mean nan
field stddev nan
field min nan
field max nan
field sum 0
field sqrsum 0
attr source packetErrorRate
attr title "Packet error rate, histogram"
bin	-inf	0
bin	-0.5	0
bin	-0.46666666666667	0
bin	-0.43333333333333	0
bin	-0.4	0
bin	-0.36666666666667	0
bin	-0.33333333333333	0
bin	-0.3	0
bin	-0.26666666666667	0
bin	-0.23333333333333	0
bin	-0.2	0
bin	-0.16666666666667	0
bin	-0.13333333333333	0
bin	-0.1	0
bin	-0.066666666666667	0
bin	-0.033333333333333	0
bin	-6.9388939039072e-018	0
bin	0.033333333333333	0
bin	0.066666666666667	0
bin	0.1	0
bin	0.13333333333333	0
bin	0.16666666666667	0
bin	0.2	0
bin	0.23333333333333	0
bin	0.26666666666667	0
bin	0.3	0
bin	0.33333333333333	0
bin	0.36666666666667	0
bin	0.4	0
bin	0.43333333333333	0
bin	0.46666666666667	0
bin	0.5	0
statistic LoRaNetworkTest.loRaNodes[4].LoRaNic.radio minSNIR:histogram
field count 23
field mean 2.1052664839766
field stddev 0.55909692408019
field min 1.4625431633865
field max 2.8916132096448
field sum 48.421129131461
field sqrsum 108.81634642812
attr source minSNIR
attr title "Min SNIR, histogram"
bin	-inf	0
bin	0.7480081402574	0
bin	0.84327947667462	0
bin	0.93855081309184	0
bin	1.0338221495091	0
bin	1.1290934859263	0
bin	1.2243648223435	0
bin	1.3196361587607	0
bin	1.4149074951779	2
bin	1.5101788315951	0
bin	1.6054501680123	9
bin	1.7007215044296	1
bin	1.7959928408468	0
bin	1.891264177264	0
bin	1.9865355136812	2
bin	2.0818068500984	2
bin	2.1770781865156	0
bin	2.2723495229329	0
bin	2.3676208593501	0
bin	2.4628921957673	0
bin	2.5581635321845	0
bin	2.6534348686017	0
bin	2.7487062050189	0
bin	2.8439775414362	7
bin	2.9392488778534	0
bin	3.0345202142706	0
bin	3.1297915506878	0
bin	3.225062887105	0
bin	3.3203342235222	0
bin	3.4156055599395	0
bin	3.5108768963567	0
bin	3.6061482327739	0
scalar LoRaNetworkTest.loRaNodes[4].LoRaNic.radio transmissionState:count 1748
attr interpolationmode sample-hold
attr source transmissionStateChanged
attr title "Radio transmission state, count"
scalar LoRaNetworkTest.loRaNodes[4].LoRaNic.radio receptionState:count 2092
attr interpolationmode sample-hold
attr source receptionStateChanged
attr title "Radio reception state, count"
scalar LoRaNetworkTest.loRaNodes[4].LoRaNic.radio radioMode:count 2857
attr interpolationmode sample-hold
attr source radioModeChanged
attr title "Radio mode, count"
scalar LoRaNetworkTest.loRaNodes[4].SimpleLoRaApp positionX 210.04186078906
scalar LoRaNetworkTest.loRaNodes[4].SimpleLoRaApp positionY 142.81661052257
scalar LoRaNetworkTest.loRaNodes[4].SimpleLoRaApp finalTP 3
scalar LoRaNetworkTest.loRaNodes[4].SimpleLoRaApp finalSF 12
scalar LoRaNetworkTest.loRaNodes[4].SimpleLoRaApp sentPackets 437
scalar LoRaNetworkTest.loRaNodes[4].SimpleLoRaApp receivedADRCommands 0
scalar LoRaNetworkTest.loRaNodes[4].SimpleLoRaApp LoRa_AppPacketSent:count 437
attr source LoRa_AppPacketSent
scalar LoRaNetworkTest.loRaNodes[5].LoRaNic.mac numRetry 0
scalar LoRaNetworkTest.loRaNodes[5].LoRaNic.mac numSentWithoutRetry 0
scalar LoRaNetworkTest.loRaNodes[5].LoRaNic.mac numGivenUp 0
scalar LoRaNetworkTest.loRaNodes[5].LoRaNic.mac numSent 776
scalar LoRaNetworkTest.loRaNodes[5].LoRaNic.mac numReceived 0
scalar LoRaNetworkTest.loRaNodes[5].LoRaNic.mac numSentBroadcast 0
scalar LoRaNetworkTest.loRaNodes[5].LoRaNic.mac numReceivedBroadcast 0
scalar LoRaNetworkTest.loRaNodes[5].LoRaNic.radio.transmitter LoRaTransmissionCreated:count 453
attr source LoRaTransmissionCreated
scalar LoRaNetworkTest.loRaNodes[5].LoRaNic.radio.receiver numCollisions 0
scalar LoRaNetworkTest.loRaNodes[5].LoRaNic.radio.receiver rcvBelowSensitivity 154
scalar LoRaNetworkTest.loRaNodes[5].LoRaNic.radio.receiver LoRaReceptionCollision:count 0
attr source LoRaReceptionCollision
scalar LoRaNetworkTest.loRaNodes[5].LoRaNic.radio.energyConsumer totalEnergyConsumed 104.27610633946
statistic LoRaNetworkTest.loRaNodes[5].LoRaNic.radio symbolErrorRate:histogram
field count 0
field mean nan
field stddev nan
field min nan
field max nan
field sum 0
field sqrsum 0
attr source symbolErrorRate
attr title "Symbol error rate, histogram"
bin	-inf	0
bin	-0.5	0
bin	-0.46666666666667	0
bin	-0.43333333333333	0
bin	-0.4	0
bin	-0.36666666666667	0
bin	-0.33333333333333	0
bin	-0.3	0
bin	-0.26666666666667	0
bin	-0.23333333333333	0
bin	-0.2	0
bin	-0.16666666666667	0
bin	-0.13333333333333	0
bin	-0.1	0
bin	-0.066666666666667	0
bin	-0.033333333333333	0
bin	-6.9388939039072e-018	0
bin	0.033333333333333	0
bin	0.066666666666667	0
bin	0.1	0
bin	0.13333333333333	0
bin	0.16666666666667	0
bin	0.2	0
bin	0.23333333333333	0
bin	0.26666666666667	0
bin	0.3	0
bin	0.33333333333333	0
bin	0.36666666666667	0
bin	0.4	0
bin	0.43333333333333	0
bin	0.46666666666667	0
bin	0.5	0
statistic LoRaNetworkTest.loRaNodes[5].LoRaNic.radio bitErrorRate:histogram
field count 0
field mean nan
field stddev nan
field min nan
field max nan
field sum 0
field sqrsum 0
attr source bitErrorRate
attr title "Bit error rate, histogram"
bin	-inf	0
bin	-0.5	0
bin	-0.46666666666667	0
bin	-0.43333333333333	0
bin	-0.4	0
bin	-0.36666666666667	0
bin	-0.33333333333333	0
bin	-0.3	0
bin	-0.26666666666667	0
bin	-0.23333333333333	0
bin	-0.2	0
bin	-0.16666666666667	0
bin	-0.13333333333333	0
bin	-0.1	0
bin	-0.066666666666667	0
bin	-0.033333333333333	0
bin	-6.9388939039072e-018	0
bin	0.033333333333333	0
bin	0.066666666666667	0
bin	0.1	0
bin	0.13333333333333	0
bin	0.16666666666667	0
bin	0.2	0
bin	0.23333333333333	0
bin	0.26666666666667	0
bin	0.3	0
bin	0.33333333333333	0
bin	0.36666666666667	0
bin	0.4	0
bin	0.43333333333333	0
bin	0.46666666666667	0
bin	0.5	0
statistic LoRaNetworkTest.loRaNodes[5].LoRaNic.radio packetErrorRate:histogram
field count 0
field mean nan
field stddev nan
field min nan
field max nan
field sum 0
field sqrsum 0
attr source packetErrorRate
attr title "Packet error rate, histogram"
bin	-inf	0
bin	-0.5	0
bin	-0.46666666666667	0
bin	-0.43333333333333	0
bin	-0.4	0
bin	-0.36666666666667	0
bin	-0.33333333333333	0
bin	-0.3	0
bin	-0.26666666666667	0
bin	-0.23333333333333	0
bin	-0.2	0
bin	-0.16666666666667	0
bin	-0.13333333333333	0
bin	-0.1	0
bin	-0.066666666666667	0
bin	-0.033333333333333	0
bin	-6.9388939039072e-018	0
bin	0.033333333333333	0
bin	0.066666666666667	0
bin	0.1	0
bin	0.13333333333333	0
bin	0.16666666666667	0
bin	0.2	0
bin	0.23333333333333	0
bin	0.26666666666667	0
bin	0.3	0
bin	0.33333333333333	0
bin	0.36666666666667	0
bin	0.4	0
bin	0.43333333333333	0
bin	0.46666666666667	0
bin	0.5	0
statistic LoRaNetworkTest.loRaNodes[5].LoRaNic.radio minSNIR:histogram
field count 2
field mean 1.1588860651286
field stddev 0
field min 1.1588860651286
field max 1.1588860651286
field sum 2.3177721302573
field sqrsum 2.6860338238987
attr source minSNIR
attr title "Min SNIR, histogram"
bin	-inf	0
bin	0.65888606512864	0
bin	0.69221939846198	0
bin	0.72555273179531	0
bin	0.75888606512864	0
bin	0.79221939846198	0
bin	0.82555273179531	0
bin	0.85888606512864	0
bin	0.89221939846198	0
bin	0.92555273179531	0
bin	0.95888606512864	0
bin	0.99221939846198	0
bin	1.0255527317953	0
bin	1.0588860651286	0
bin	1.092219398462	0
bin	1.1255527317953	0
bin	1.1588860651286	2
bin	1.192219398462	0
bin	1.2255527317953	0
bin	1.2588860651286	0
bin	1.292219398462	0
bin	1.3255527317953	0
bin	1.3588860651286	0
bin	1.392219398462	0
bin	1.4255527317953	0
bin	1.4588860651286	0
bin	1.492219398462	0
bin	1.5255527317953	0
bin	1.5588860651286	0
bin	1.592219398462	0
bin	1.6255527317953	0
bin	1.6588860651286	0
scalar LoRaNetworkTest.loRaNodes[5].LoRaNic.radio transmissionState:count 1812
attr interpolationmode sample-hold
attr source transmissionStateChanged
attr title "Radio transmission state, count"
scalar LoRaNetworkTest.loRaNodes[5].LoRaNic.radio receptionState:count 2168
attr interpolationmode sample-hold
attr source receptionStateChanged
attr title "Radio reception state, count"
scalar LoRaNetworkTest.loRaNodes[5].LoRaNic.radio radioMode:count 2983
attr interpolationmode sample-hold
attr source radioModeChanged
attr title "Radio mode, count"
scalar LoRaNetworkTest.loRaNodes[5].SimpleLoRaApp positionX 27.222228348255
scalar LoRaNetworkTest.loRaNodes[5].SimpleLoRaApp positionY 462.55812674761
scalar LoRaNetworkTest.loRaNodes[5].SimpleLoRaApp finalTP 3
scalar LoRaNetworkTest.loRaNodes[5].SimpleLoRaApp finalSF 12
scalar LoRaNetworkTest.loRaNodes[5].SimpleLoRaApp sentPackets 453
scalar LoRaNetworkTest.loRaNodes[5].SimpleLoRaApp receivedADRCommands 0
scalar LoRaNetworkTest.loRaNodes[5].SimpleLoRaApp LoRa_AppPacketSent:count 453
attr source LoRa_AppPacketSent
scalar LoRaNetworkTest.loRaNodes[6].LoRaNic.mac numRetry 0
scalar LoRaNetworkTest.loRaNodes[6].LoRaNic.mac numSentWithoutRetry 0
scalar LoRaNetworkTest.loRaNodes[6].LoRaNic.mac numGivenUp 0
scalar LoRaNetworkTest.loRaNodes[6].LoRaNic.mac numSent 756
scalar LoRaNetworkTest.loRaNodes[6].LoRaNic.mac numReceived 0
scalar LoRaNetworkTest.loRaNodes[6].LoRaNic.mac numSentBroadcast 0
scalar LoRaNetworkTest.loRaNodes[6].LoRaNic.mac numReceivedBroadcast 0
scalar LoRaNetworkTest.loRaNodes[6].LoRaNic.radio.transmitter LoRaTransmissionCreated:count 439
attr source LoRaTransmissionCreated
scalar LoRaNetworkTest.loRaNodes[6].LoRaNic.radio.receiver numCollisions 0
scalar LoRaNetworkTest.loRaNodes[6].LoRaNic.radio.receiver rcvBelowSensitivity 126
scalar LoRaNetworkTest.loRaNodes[6].LoRaNic.radio.receiver LoRaReceptionCollision:count 0
attr source LoRaReceptionCollision
scalar LoRaNetworkTest.loRaNodes[6].LoRaNic.radio.energyConsumer totalEnergyConsumed 101.42855800451
statistic LoRaNetworkTest.loRaNodes[6].LoRaNic.radio symbolErrorRate:histogram
field count 0
field mean nan
field stddev nan
field min nan
field max nan
field sum 0
field sqrsum 0
attr source symbolErrorRate
attr title "Symbol error rate, histogram"
bin	-inf	0
bin	-0.5	0
bin	-0.46666666666667	0
bin	-0.43333333333333	0
bin	-0.4	0
bin	-0.36666666666667	0
bin	-0.33333333333333	0
bin	-0.3	0
bin	-0.26666666666667	0
bin	-0.23333333333333	0
bin	-0.2	0
bin	-0.16666666666667	0
bin	-0.13333333333333	0
bin	-0.1	0
bin	-0.066666666666667	0
bin	-0.033333333333333	0
bin	-6.9388939039072e-018	0
bin	0.033333333333333	0
bin	0.066666666666667	0
bin	0.1	0
bin	0.13333333333333	0
bin	0.16666666666667	0
bin	0.2	0
bin	0.23333333333333	0
bin	0.26666666666667	0
bin	0.3	0
bin	0.33333333333333	0
bin	0.36666666666667	0
bin	0.4	0
bin	0.43333333333333	0
bin	0.46666666666667	0
bin	0.5	0
statistic LoRaNetworkTest.loRaNodes[6].LoRaNic.radio bitErrorRate:histogram
field count 0
field mean nan
field stddev nan
field min nan
field max nan
field sum 0
field sqrsum 0
attr source bitErrorRate
attr title "Bit error rate, histogram"
bin	-inf	0
bin	-0.5	0
bin	-0.46666666666667	0
bin	-0.43333333333333	0
bin	-0.4	0
bin	-0.36666666666667	0
bin	-0.33333333333333	0
bin	-0.3	0
bin	-0.26666666666667	0
bin	-0.23333333333333	0
bin	-0.2	0
bin	-0.16666666666667	0
bin	-0.13333333333333	0
bin	-0.1	0
bin	-0.066666666666667	0
bin	-0.033333333333333	0
bin	-6.9388939039072e-018	0
bin	0.033333333333333	0
bin	0.066666666666667	0
bin	0.1	0
bin	0.13333333333333	0
bin	0.16666666666667	0
bin	0.2	0
bin	0.23333333333333	0
bin	0.26666666666667	0
bin	0.3	0
bin	0.33333333333333	0
bin	0.36666666666667	0
bin	0.4	0
bin	0.43333333333333	0
bin	0.46666666666667	0
bin	0.5	0
statistic LoRaNetworkTest.loRaNodes[6].LoRaNic.radio packetErrorRate:histogram
field count 0
field mean nan
field stddev nan
field min nan
field max nan
field sum 0
field sqrsum 0
attr source packetErrorRate
attr title "Packet error rate, histogram"
bin	-inf	0
bin	-0.5	0
bin	-0.46666666666667	0
bin	-0.43333333333333	0
bin	-0.4	0
bin	-0.36666666666667	0
bin	-0.33333333333333	0
bin	-0.3	0
bin	-0.26666666666667	0
bin	-0.23333333333333	0
bin	-0.2	0
bin	-0.16666666666667	0
bin	-0.13333333333333	0
bin	-0.1	0
bin	-0.066666666666667	0
bin	-0.033333333333333	0
bin	-6.9388939039072e-018	0
bin	0.033333333333333	0
bin	0.066666666666667	0
bin	0.1	0
bin	0.13333333333333	0
bin	0.16666666666667	0
bin	0.2	0
bin	0.23333333333333	0
bin	0.26666666666667	0
bin	0.3	0
bin	0.33333333333333	0
bin	0.36666666666667	0
bin	0.4	0
bin	0.43333333333333	0
bin	0.46666666666667	0
bin	0.5	0
statistic LoRaNetworkTest.loRaNodes[6].LoRaNic.radio minSNIR:histogram
field count 15
field mean 2.1648814610171
field stddev 0.75615657502802
field min 1.1386343424859
field max 3.2808399892887
field sum 32.473221915256
field sqrsum 78.305494827244
attr source minSNIR
attr title "Min SNIR, histogram"
bin	-inf	0
bin	0.067531519084549	0
bin	0.2103452288714	0
bin	0.35315893865825	0
bin	0.49597264844511	0
bin	0.63878635823196	0
bin	0.78160006801881	0
bin	0.92441377780566	0
bin	1.0672274875925	1
bin	1.2100411973794	2
bin	1.3528549071662	0
bin	1.4956686169531	0
bin	1.6384823267399	0
bin	1.7812960365268	5
bin	1.9241097463136	0
bin	2.0669234561005	2
bin	2.2097371658873	1
bin	2.3525508756742	0
bin	2.495364585461	0
bin	2.6381782952479	0
bin	2.7809920050347	0
bin	2.9238057148216	0
bin	3.0666194246084	0
bin	3.2094331343953	4
bin	3.3522468441821	0
bin	3.495060553969	0
bin	3.6378742637559	0
bin	3.7806879735427	0
bin	3.9235016833296	0
bin	4.0663153931164	0
bin	4.2091291029033	0
bin	4.3519428126901	0
scalar LoRaNetworkTest.loRaNodes[6].LoRaNic.radio transmissionState:count 1756
attr interpolationmode sample-hold
attr source transmissionStateChanged
attr title "Radio transmission state, count"
scalar LoRaNetworkTest.loRaNodes[6].LoRaNic.radio receptionState:count 2140
attr interpolationmode sample-hold
attr source receptionStateChanged
attr title "Radio reception state, count"
scalar LoRaNetworkTest.loRaNodes[6].LoRaNic.radio radioMode:count 2907
attr interpolationmode sample-hold
attr source radioModeChanged
attr title "Radio mode, count"
scalar LoRaNetworkTest.loRaNodes[6].SimpleLoRaApp positionX 184.05193023384
scalar LoRaNetworkTest.loRaNodes[6].SimpleLoRaApp positionY 229.27925359458
scalar LoRaNetworkTest.loRaNodes[6].SimpleLoRaApp finalTP 3
scalar LoRaNetworkTest.loRaNodes[6].SimpleLoRaApp finalSF 12
scalar LoRaNetworkTest.loRaNodes[6].SimpleLoRaApp sentPackets 439
scalar LoRaNetworkTest.loRaNodes[6].SimpleLoRaApp receivedADRCommands 0
scalar LoRaNetworkTest.loRaNodes[6].SimpleLoRaApp LoRa_AppPacketSent:count 439
attr source LoRa_AppPacketSent
scalar LoRaNetworkTest.loRaNodes[7].LoRaNic.mac numRetry 0
scalar LoRaNetworkTest.loRaNodes[7].LoRaNic.mac numSentWithoutRetry 0
scalar LoRaNetworkTest.loRaNodes[7].LoRaNic.mac numGivenUp 0
scalar LoRaNetworkTest.loRaNodes[7].LoRaNic.mac numSent 782
scalar LoRaNetworkTest.loRaNodes[7].LoRaNic.mac numReceived 0
scalar LoRaNetworkTest.loRaNodes[7].LoRaNic.mac numSentBroadcast 0
scalar LoRaNetworkTest.loRaNodes[7].LoRaNic.mac numReceivedBroadcast 0
scalar LoRaNetworkTest.loRaNodes[7].LoRaNic.radio.transmitter LoRaTransmissionCreated:count 454
attr source LoRaTransmissionCreated
scalar LoRaNetworkTest.loRaNodes[7].LoRaNic.radio.receiver numCollisions 0
scalar LoRaNetworkTest.loRaNodes[7].LoRaNic.radio.receiver rcvBelowSensitivity 128
scalar LoRaNetworkTest.loRaNodes[7].LoRaNic.radio.receiver LoRaReceptionCollision:count 0
attr source LoRaReceptionCollision
scalar LoRaNetworkTest.loRaNodes[7].LoRaNic.radio.energyConsumer totalEnergyConsumed 104.94064362133
statistic LoRaNetworkTest.loRaNodes[7].LoRaNic.radio symbolErrorRate:histogram
field count 0
field mean nan
field stddev nan
field min nan
field max nan
field sum 0
field sqrsum 0
attr source symbolErrorRate
attr title "Symbol error rate, histogram"
bin	-inf	0
bin	-0.5	0
bin	-0.46666666666667	0
bin	-0.43333333333333	0
bin	-0.4	0
bin	-0.36666666666667	0
bin	-0.33333333333333	0
bin	-0.3	0
bin	-0.26666666666667	0
bin	-0.23333333333333	0
bin	-0.2	0
bin	-0.16666666666667	0
bin	-0.13333333333333	0
bin	-0.1	0
bin	-0.066666666666667	0
bin	-0.033333333333333	0
bin	-6.9388939039072e-018	0
bin	0.033333333333333	0
bin	0.066666666666667	0
bin	0.1	0
bin	0.13333333333333	0
bin	0.16666666666667	0
bin	0.2	0
bin	0.23333333333333	0
bin	0.26666666666667	0
bin	0.3	0
bin	0.33333333333333	0
bin	0.36666666666667	0
bin	0.4	0
bin	0.43333333333333	0
bin	0.46666666666667	0
bin	0.5	0
statistic LoRaNetworkTest.loRaNodes[7].LoRaNic.radio bitErrorRate:histogram
field count 0
field mean nan
field stddev nan
field min nan
field max nan
field sum 0
field sqrsum 0
attr source bitErrorRate
attr title "Bit error rate, histogram"
bin	-inf	0
bin	-0.5	0
bin	-0.46666666666667	0
bin	-0.43333333333333	0
bin	-0.4	0
bin	-0.36666666666667	0
bin	-0.33333333333333	0
bin	-0.3	0
bin	-0.26666666666667	0
bin	-0.23333333333333	0
bin	-0.2	0
bin	-0.16666666666667	0
bin	-0.13333333333333	0
bin	-0.1	0
bin	-0.066666666666667	0
bin	-0.033333333333333	0
bin	-6.9388939039072e-018	0
bin	0.033333333333333	0
bin	0.066666666666667	0
bin	0.1	0
bin	0.13333333333333	0
bin	0.16666666666667	0
bin	0.2	0
bin	0.23333333333333	0
bin	0.26666666666667	0
bin	0.3	0
bin	0.33333333333333	0
bin	0.36666666666667	0
bin	0.4	0
bin	0.43333333333333	0
bin	0.46666666666667	0
bin	0.5	0
statistic LoRaNetworkTest.loRaNodes[7].LoRaNic.radio packetErrorRate:histogram
field count 0
field mean nan
field stddev nan
field min nan
field max nan
field sum 0
field sqrsum 0
attr source packetErrorRate
attr title "Packet error rate, histogram"
bin	-inf	0
bin	-0.5	0
bin	-0.46666666666667	0
bin	-0.43333333333333	0
bin	-0.4	0
bin	-0.36666666666667	0
bin	-0.33333333333333	0
bin	-0.3	0
bin	-0.26666666666667	0
bin	-0.23333333333333	0
bin	-0.2	0
bin	-0.16666666666667	0
bin	-0.13333333333333	0
bin	-0.1	0
bin	-0.066666666666667	0
bin	-0.033333333333333	0
bin	-6.9388939039072e-018	0
bin	0.033333333333333	0
bin	0.066666666666667	0
bin	0.1	0
bin	0.13333333333333	0
bin	0.16666666666667	0
bin	0.2	0
bin	0.23333333333333	0
bin	0.26666666666667	0
bin	0.3	0
bin	0.33333333333333	0
bin	0.36666666666667	0
bin	0.4	0
bin	0.43333333333333	0
bin	0.46666666666667	0
bin	0.5	0
statistic LoRaNetworkTest.loRaNodes[7].LoRaNic.radio minSNIR:histogram
field count 24
field mean 3.7737531797965
field stddev 3.8395868995636
field min 1.0310749837398
field max 12.296842995753
field sum 90.570076315115
field sqrsum 680.86494735248
attr source minSNIR
attr title "Min SNIR, histogram"
bin	-inf	0
bin	-4.6018090222668	0
bin	-3.8507578214659	0
bin	-3.099706620665	0
bin	-2.3486554198642	0
bin	-1.5976042190633	0
bin	-0.84655301826242	0
bin	-0.095501817461553	0
bin	0.65554938333932	2
bin	1.4066005841402	14
bin	2.1576517849411	0
bin	2.9087029857419	1
bin	3.6597541865428	0
bin	4.4108053873437	0
bin	5.1618565881445	1
bin	5.9129077889454	0
bin	6.6639589897463	3
bin	7.4150101905472	0
bin	8.166061391348	0
bin	8.9171125921489	0
bin	9.6681637929498	0
bin	10.419214993751	0
bin	11.170266194552	0
bin	11.921317395352	3
bin	12.672368596153	0
bin	13.423419796954	0
bin	14.174470997755	0
bin	14.925522198556	0
bin	15.676573399357	0
bin	16.427624600158	0
bin	17.178675800958	0
bin	17.929727001759	0
scalar LoRaNetworkTest.loRaNodes[7].LoRaNic.radio transmissionState:count 1816
attr interpolationmode sample-hold
attr source transmissionStateChanged
attr title "Radio transmission state, count"
scalar LoRaNetworkTest.loRaNodes[7].LoRaNic.radio receptionState:count 2216
attr interpolationmode sample-hold
attr source receptionStateChanged
attr title "Radio reception state, count"
scalar LoRaNetworkTest.loRaNodes[7].LoRaNic.radio radioMode:count 3000
attr interpolationmode sample-hold
attr source radioModeChanged
attr title "Radio mode, count"
scalar LoRaNetworkTest.loRaNodes[7].SimpleLoRaApp positionX 389.84098870307
scalar LoRaNetworkTest.loRaNodes[7].SimpleLoRaApp positionY 253.86956233531
scalar LoRaNetworkTest.loRaNodes[7].SimpleLoRaApp finalTP 3
scalar LoRaNetworkTest.loRaNodes[7].SimpleLoRaApp finalSF 12
scalar LoRaNetworkTest.loRaNodes[7].SimpleLoRaApp sentPackets 454
scalar LoRaNetworkTest.loRaNodes[7].SimpleLoRaApp receivedADRCommands 0
scalar LoRaNetworkTest.loRaNodes[7].SimpleLoRaApp LoRa_AppPacketSent:count 454
attr source LoRa_AppPacketSent
scalar LoRaNetworkTest.loRaNodes[8].LoRaNic.mac numRetry 0
scalar LoRaNetworkTest.loRaNodes[8].LoRaNic.mac numSentWithoutRetry 0
scalar LoRaNetworkTest.loRaNodes[8].LoRaNic.mac numGivenUp 0
scalar LoRaNetworkTest.loRaNodes[8].LoRaNic.mac numSent 754
scalar LoRaNetworkTest.loRaNodes[8].LoRaNic.mac numReceived 0
scalar LoRaNetworkTest.loRaNodes[8].LoRaNic.mac numSentBroadcast 0
scalar LoRaNetworkTest.loRaNodes[8].LoRaNic.mac numReceivedBroadcast 0
scalar LoRaNetworkTest.loRaNodes[8].LoRaNic.radio.transmitter LoRaTransmissionCreated:count 432
attr source LoRaTransmissionCreated
scalar LoRaNetworkTest.loRaNodes[8].LoRaNic.radio.receiver numCollisions 0
scalar LoRaNetworkTest.loRaNodes[8].LoRaNic.radio.receiver rcvBelowSensitivity 104
scalar LoRaNetworkTest.loRaNodes[8].LoRaNic.radio.receiver LoRaReceptionCollision:count 0
attr source LoRaReceptionCollision
scalar LoRaNetworkTest.loRaNodes[8].LoRaNic.radio.energyConsumer totalEnergyConsumed 101.0848728501
statistic LoRaNetworkTest.loRaNodes[8].LoRaNic.radio symbolErrorRate:histogram
field count 0
field mean nan
field stddev nan
field min nan
field max nan
field sum 0
field sqrsum 0
attr source symbolErrorRate
attr title "Symbol error rate, histogram"
bin	-inf	0
bin	-0.5	0
bin	-0.46666666666667	0
bin	-0.43333333333333	0
bin	-0.4	0
bin	-0.36666666666667	0
bin	-0.33333333333333	0
bin	-0.3	0
bin	-0.26666666666667	0
bin	-0.23333333333333	0
bin	-0.2	0
bin	-0.16666666666667	0
bin	-0.13333333333333	0
bin	-0.1	0
bin	-0.066666666666667	0
bin	-0.033333333333333	0
bin	-6.9388939039072e-018	0
bin	0.033333333333333	0
bin	0.066666666666667	0
bin	0.1	0
bin	0.13333333333333	0
bin	0.16666666666667	0
bin	0.2	0
bin	0.23333333333333	0
bin	0.26666666666667	0
bin	0.3	0
bin	0.33333333333333	0
bin	0.36666666666667	0
bin	0.4	0
bin	0.43333333333333	0
bin	0.46666666666667	0
bin	0.5	0
statistic LoRaNetworkTest.loRaNodes[8].LoRaNic.radio bitErrorRate:histogram
field count 0
field mean nan
field stddev nan
field min nan
field max nan
field sum 0
field sqrsum 0
attr source bitErrorRate
attr title "Bit error rate, histogram"
bin	-inf	0
bin	-0.5	0
bin	-0.46666666666667	0
bin	-0.43333333333333	0
bin	-0.4	0
bin	-0.36666666666667	0
bin	-0.33333333333333	0
bin	-0.3	0
bin	-0.26666666666667	0
bin	-0.23333333333333	0
bin	-0.2	0
bin	-0.16666666666667	0
bin	-0.13333333333333	0
bin	-0.1	0
bin	-0.066666666666667	0
bin	-0.033333333333333	0
bin	-6.9388939039072e-018	0
bin	0.033333333333333	0
bin	0.066666666666667	0
bin	0.1	0
bin	0.13333333333333	0
bin	0.16666666666667	0
bin	0.2	0
bin	0.23333333333333	0
bin	0.26666666666667	0
bin	0.3	0
bin	0.33333333333333	0
bin	0.36666666666667	0
bin	0.4	0
bin	0.43333333333333	0
bin	0.46666666666667	0
bin	0.5	0
statistic LoRaNetworkTest.loRaNodes[8].LoRaNic.radio packetErrorRate:histogram
field count 0
field mean nan
field stddev nan
field min nan
field max nan
field sum 0
field sqrsum 0
attr source packetErrorRate
attr title "Packet error rate, histogram"
bin	-inf	0
bin	-0.5	0
bin	-0.46666666666667	0
bin	-0.43333333333333	0
bin	-0.4	0
bin	-0.36666666666667	0
bin	-0.33333333333333	0
bin	-0.3	0
bin	-0.26666666666667	0
bin	-0.23333333333333	0
bin	-0.2	0
bin	-0.16666666666667	0
bin	-0.13333333333333	0
bin	-0.1	0
bin	-0.066666666666667	0
bin	-0.033333333333333	0
bin	-6.9388939039072e-018	0
bin	0.033333333333333	0
bin	0.066666666666667	0
bin	0.1	0
bin	0.13333333333333	0
bin	0.16666666666667	0
bin	0.2	0
bin	0.23333333333333	0
bin	0.26666666666667	0
bin	0.3	0
bin	0.33333333333333	0
bin	0.36666666666667	0
bin	0.4	0
bin	0.43333333333333	0
bin	0.46666666666667	0
bin	0.5	0
statistic LoRaNetworkTest.loRaNodes[8].LoRaNic.radio minSNIR:histogram
field count 15
field mean 3.4605821262007
field stddev 4.8284058771871
field min 1.0819254278561
field max 20.413281685396
field sum 51.908731893011
field sqrsum 506.02347619067
attr source minSNIR
attr title "Min SNIR, histogram"
bin	-inf	0
bin	-8.5837527009141	0
bin	-7.2949956170781	0
bin	-6.006238533242	0
bin	-4.717481449406	0
bin	-3.42872436557	0
bin	-2.139967281734	0
bin	-0.85121019789796	0
bin	0.43754688593806	4
bin	1.7263039697741	8
bin	3.0150610536101	0
bin	4.3038181374461	2
bin	5.5925752212821	0
bin	6.8813323051182	0
bin	8.1700893889542	0
bin	9.4588464727902	0
bin	10.747603556626	0
bin	12.036360640462	0
bin	13.325117724298	0
bin	14.613874808134	0
bin	15.90263189197	0
bin	17.191388975806	0
bin	18.480146059642	0
bin	19.768903143478	1
bin	21.057660227314	0
bin	22.34641731115	0
bin	23.635174394986	0
bin	24.923931478822	0
bin	26.212688562658	0
bin	27.501445646494	0
bin	28.79020273033	0
bin	30.078959814166	0
scalar LoRaNetworkTest.loRaNodes[8].LoRaNic.radio transmissionState:count 1728
attr interpolationmode sample-hold
attr source transmissionStateChanged
attr title "Radio transmission state, count"
scalar LoRaNetworkTest.loRaNodes[8].LoRaNic.radio receptionState:count 1976
attr interpolationmode sample-hold
attr source receptionStateChanged
attr title "Radio reception state, count"
scalar LoRaNetworkTest.loRaNodes[8].LoRaNic.radio radioMode:count 2763
attr interpolationmode sample-hold
attr source radioModeChanged
attr title "Radio mode, count"
scalar LoRaNetworkTest.loRaNodes[8].SimpleLoRaApp positionX 272.66139060259
scalar LoRaNetworkTest.loRaNodes[8].SimpleLoRaApp positionY 188.5367007181
scalar LoRaNetworkTest.loRaNodes[8].SimpleLoRaApp finalTP 3
scalar LoRaNetworkTest.loRaNodes[8].SimpleLoRaApp finalSF 12
scalar LoRaNetworkTest.loRaNodes[8].SimpleLoRaApp sentPackets 432
scalar LoRaNetworkTest.loRaNodes[8].SimpleLoRaApp receivedADRCommands 0
scalar LoRaNetworkTest.loRaNodes[8].SimpleLoRaApp LoRa_AppPacketSent:count 432
attr source LoRa_AppPacketSent
scalar LoRaNetworkTest.loRaNodes[9].LoRaNic.mac numRetry 0
scalar LoRaNetworkTest.loRaNodes[9].LoRaNic.mac numSentWithoutRetry 0
scalar LoRaNetworkTest.loRaNodes[9].LoRaNic.mac numGivenUp 0
scalar LoRaNetworkTest.loRaNodes[9].LoRaNic.mac numSent 779
scalar LoRaNetworkTest.loRaNodes[9].LoRaNic.mac numReceived 0
scalar LoRaNetworkTest.loRaNodes[9].LoRaNic.mac numSentBroadcast 0
scalar LoRaNetworkTest.loRaNodes[9].LoRaNic.mac numReceivedBroadcast 0
scalar LoRaNetworkTest.loRaNodes[9].LoRaNic.radio.transmitter LoRaTransmissionCreated:count 448
attr source LoRaTransmissionCreated
scalar LoRaNetworkTest.loRaNodes[9].LoRaNic.radio.receiver numCollisions 0
scalar LoRaNetworkTest.loRaNodes[9].LoRaNic.radio.receiver rcvBelowSensitivity 135
scalar LoRaNetworkTest.loRaNodes[9].LoRaNic.radio.receiver LoRaReceptionCollision:count 0
attr source LoRaReceptionCollision
scalar LoRaNetworkTest.loRaNodes[9].LoRaNic.radio.energyConsumer totalEnergyConsumed 104.67532973198
statistic LoRaNetworkTest.loRaNodes[9].LoRaNic.radio symbolErrorRate:histogram
field count 0
field mean nan
field stddev nan
field min nan
field max nan
field sum 0
field sqrsum 0
attr source symbolErrorRate
attr title "Symbol error rate, histogram"
bin	-inf	0
bin	-0.5	0
bin	-0.46666666666667	0
bin	-0.43333333333333	0
bin	-0.4	0
bin	-0.36666666666667	0
bin	-0.33333333333333	0
bin	-0.3	0
bin	-0.26666666666667	0
bin	-0.23333333333333	0
bin	-0.2	0
bin	-0.16666666666667	0
bin	-0.13333333333333	0
bin	-0.1	0
bin	-0.066666666666667	0
bin	-0.033333333333333	0
bin	-6.9388939039072e-018	0
bin	0.033333333333333	0
bin	0.066666666666667	0
bin	0.1	0
bin	0.13333333333333	0
bin	0.16666666666667	0
bin	0.2	0
bin	0.23333333333333	0
bin	0.26666666666667	0
bin	0.3	0
bin	0.33333333333333	0
bin	0.36666666666667	0
bin	0.4	0
bin	0.43333333333333	0
bin	0.46666666666667	0
bin	0.5	0
statistic LoRaNetworkTest.loRaNodes[9].LoRaNic.radio bitErrorRate:histogram
field count 0
field mean nan
field stddev nan
field min nan
field max nan
field sum 0
field sqrsum 0
attr source bitErrorRate
attr title "Bit error rate, histogram"
bin	-inf	0
bin	-0.5	0
bin	-0.46666666666667	0
bin	-0.43333333333333	0
bin	-0.4	0
bin	-0.36666666666667	0
bin	-0.33333333333333	0
bin	-0.3	0
bin	-0.26666666666667	0
bin	-0.23333333333333	0
bin	-0.2	0
bin	-0.16666666666667	0
bin	-0.13333333333333	0
bin	-0.1	0
bin	-0.066666666666667	0
bin	-0.033333333333333	0
bin	-6.9388939039072e-018	0
bin	0.033333333333333	0
bin	0.066666666666667	0
bin	0.1	0
bin	0.13333333333333	0
bin	0.16666666666667	0
bin	0.2	0
bin	0.23333333333333	0
bin	0.26666666666667	0
bin	0.3	0
bin	0.33333333333333	0
bin	0.36666666666667	0
bin	0.4	0
bin	0.43333333333333	0
bin	0.46666666666667	0
bin	0.5	0
statistic LoRaNetworkTest.loRaNodes[9].LoRaNic.radio packetErrorRate:histogram
field count 0
field mean nan
field stddev nan
field min nan
field max nan
field sum 0
field sqrsum 0
attr source packetErrorRate
attr title "Packet error rate, histogram"
bin	-inf	0
bin	-0.5	0
bin	-0.46666666666667	0
bin	-0.43333333333333	0
bin	-0.4	0
bin	-0.36666666666667	0
bin	-0.33333333333333	0
bin	-0.3	0
bin	-0.26666666666667	0
bin	-0.23333333333333	0
bin	-0.2	0
bin	-0.16666666666667	0
bin	-0.13333333333333	0
bin	-0.1	0
bin	-0.066666666666667	0
bin	-0.033333333333333	0
bin	-6.9388939039072e-018	0
bin	0.033333333333333	0
bin	0.066666666666667	0
bin	0.1	0
bin	0.13333333333333	0
bin	0.16666666666667	0
bin	0.2	0
bin	0.23333333333333	0
bin	0.26666666666667	0
bin	0.3	0
bin	0.33333333333333	0
bin	0.36666666666667	0
bin	0.4	0
bin	0.43333333333333	0
bin	0.46666666666667	0
bin	0.5	0
statistic LoRaNetworkTest.loRaNodes[9].LoRaNic.radio minSNIR:histogram
field count 9
field mean 4.8485866308621
field stddev 3.8230100855136
field min 1.0395618762263
field max 9.6866473656895
field sum 43.637279677759
field sqrsum 328.50237976428
attr source minSNIR
attr title "Min SNIR, histogram"
bin	-inf	0
bin	-3.2839808685053	0
bin	-2.7075085025411	0
bin	-2.1310361365769	0
bin	-1.5545637706127	0
bin	-0.97809140464848	0
bin	-0.40161903868426	0
bin	0.17485332727995	0
bin	0.75132569324417	3
bin	1.3277980592084	0
bin	1.9042704251726	0
bin	2.4807427911368	0
bin	3.057215157101	0
bin	3.6336875230653	3
bin	4.2101598890295	0
bin	4.7866322549937	0
bin	5.3631046209579	0
bin	5.9395769869221	0
bin	6.5160493528863	0
bin	7.0925217188505	0
bin	7.6689940848148	0
bin	8.245466450779	0
bin	8.8219388167432	0
bin	9.3984111827074	3
bin	9.9748835486716	0
bin	10.551355914636	0
bin	11.1278282806	0
bin	11.704300646564	0
bin	12.280773012528	0
bin	12.857245378493	0
bin	13.433717744457	0
bin	14.010190110421	0
scalar LoRaNetworkTest.loRaNodes[9].LoRaNic.radio transmissionState:count 1792
attr interpolationmode sample-hold
attr source transmissionStateChanged
attr title "Radio transmission state, count"
scalar LoRaNetworkTest.loRaNodes[9].LoRaNic.radio receptionState:count 2124
attr interpolationmode sample-hold
attr source receptionStateChanged
attr title "Radio reception state, count"
scalar LoRaNetworkTest.loRaNodes[9].LoRaNic.radio radioMode:count 2928
attr interpolationmode sample-hold
attr source radioModeChanged
attr title "Radio mode, count"
scalar LoRaNetworkTest.loRaNodes[9].SimpleLoRaApp positionX 401.31780903786
scalar LoRaNetworkTest.loRaNodes[9].SimpleLoRaApp positionY 34.097308181226
scalar LoRaNetworkTest.loRaNodes[9].SimpleLoRaApp finalTP 3
scalar LoRaNetworkTest.loRaNodes[9].SimpleLoRaApp finalSF 12
scalar LoRaNetworkTest.loRaNodes[9].SimpleLoRaApp sentPackets 448
scalar LoRaNetworkTest.loRaNodes[9].SimpleLoRaApp receivedADRCommands 0
scalar LoRaNetworkTest.loRaNodes[9].SimpleLoRaApp LoRa_AppPacketSent:count 448
attr source LoRa_AppPacketSent
scalar LoRaNetworkTest.loRaNodes[10].LoRaNic.mac numRetry 0
scalar LoRaNetworkTest.loRaNodes[10].LoRaNic.mac numSentWithoutRetry 0
scalar LoRaNetworkTest.loRaNodes[10].LoRaNic.mac numGivenUp 0
scalar LoRaNetworkTest.loRaNodes[10].LoRaNic.mac numSent 775
scalar LoRaNetworkTest.loRaNodes[10].LoRaNic.mac numReceived 0
scalar LoRaNetworkTest.loRaNodes[10].LoRaNic.mac numSentBroadcast 0
scalar LoRaNetworkTest.loRaNodes[10].LoRaNic.mac numReceivedBroadcast 0
scalar LoRaNetworkTest.loRaNodes[10].LoRaNic.radio.transmitter LoRaTransmissionCreated:count 449
attr source LoRaTransmissionCreated
scalar LoRaNetworkTest.loRaNodes[10].LoRaNic.radio.receiver numCollisions 0
scalar LoRaNetworkTest.loRaNodes[10].LoRaNic.radio.receiver rcvBelowSensitivity 144
scalar LoRaNetworkTest.loRaNodes[10].LoRaNic.radio.receiver LoRaReceptionCollision:count 0
attr source LoRaReceptionCollision
scalar LoRaNetworkTest.loRaNodes[10].LoRaNic.radio.energyConsumer totalEnergyConsumed 104.04413825953
statistic LoRaNetworkTest.loRaNodes[10].LoRaNic.radio symbolErrorRate:histogram
field count 0
field mean nan
field stddev nan
field min nan
field max nan
field sum 0
field sqrsum 0
attr source symbolErrorRate
attr title "Symbol error rate, histogram"
bin	-inf	0
bin	-0.5	0
bin	-0.46666666666667	0
bin	-0.43333333333333	0
bin	-0.4	0
bin	-0.36666666666667	0
bin	-0.33333333333333	0
bin	-0.3	0
bin	-0.26666666666667	0
bin	-0.23333333333333	0
bin	-0.2	0
bin	-0.16666666666667	0
bin	-0.13333333333333	0
bin	-0.1	0
bin	-0.066666666666667	0
bin	-0.033333333333333	0
bin	-6.9388939039072e-018	0
bin	0.033333333333333	0
bin	0.066666666666667	0
bin	0.1	0
bin	0.13333333333333	0
bin	0.16666666666667	0
bin	0.2	0
bin	0.23333333333333	0
bin	0.26666666666667	0
bin	0.3	0
bin	0.33333333333333	0
bin	0.36666666666667	0
bin	0.4	0
bin	0.43333333333333	0
bin	0.46666666666667	0
bin	0.5	0
statistic LoRaNetworkTest.loRaNodes[10].LoRaNic.radio bitErrorRate:histogram
field count 0
field mean nan
field stddev nan
field min nan
field max nan
field sum 0
field sqrsum 0
attr source bitErrorRate
attr title "Bit error rate, histogram"
bin	-inf	0
bin	-0.5	0
bin	-0.46666666666667	0
bin	-0.43333333333333	0
bin	-0.4	0
bin	-0.36666666666667	0
bin	-0.33333333333333	0
bin	-0.3	0
bin	-0.26666666666667	0
bin	-0.23333333333333	0
bin	-0.2	0
bin	-0.16666666666667	0
bin	-0.13333333333333	0
bin	-0.1	0
bin	-0.066666666666667	0
bin	-0.033333333333333	0
bin	-6.9388939039072e-018	0
bin	0.033333333333333	0
bin	0.066666666666667	0
bin	0.1	0
bin	0.13333333333333	0
bin	0.16666666666667	0
bin	0.2	0
bin	0.23333333333333	0
bin	0.26666666666667	0
bin	0.3	0
bin	0.33333333333333	0
bin	0.36666666666667	0
bin	0.4	0
bin	0.43333333333333	0
bin	0.46666666666667	0
bin	0.5	0
statistic LoRaNetworkTest.loRaNodes[10].LoRaNic.radio packetErrorRate:histogram
field count 0
field mean nan
field stddev nan
field min nan
field max nan
field sum 0
field sqrsum 0
attr source packetErrorRate
attr title "Packet error rate, histogram"
bin	-inf	0
bin	-0.5	0
bin	-0.46666666666667	0
bin	-0.43333333333333	0
bin	-0.4	0
bin	-0.36666666666667	0
bin	-0.33333333333333	0
bin	-0.3	0
bin	-0.26666666666667	0
bin	-0.23333333333333	0
bin	-0.2	0
bin	-0.16666666666667	0
bin	-0.13333333333333	0
bin	-0.1	0
bin	-0.066666666666667	0
bin	-0.033333333333333	0
bin	-6.9388939039072e-018	0
bin	0.033333333333333	0
bin	0.066666666666667	0
bin	0.1	0
bin	0.13333333333333	0
bin	0.16666666666667	0
bin	0.2	0
bin	0.23333333333333	0
bin	0.26666666666667	0
bin	0.3	0
bin	0.33333333333333	0
bin	0.36666666666667	0
bin	0.4	0
bin	0.43333333333333	0
bin	0.46666666666667	0
bin	0.5	0
statistic LoRaNetworkTest.loRaNodes[10].LoRaNic.radio minSNIR:histogram
field count 12
field mean 5.152209109791
field stddev 5.68127486435
field min 1.2150666552849
field max 12.844543889122
field sum 61.826509317492
field sqrsum 673.5888294594
attr source minSNIR
attr title "Min SNIR, histogram"
bin	-inf	0
bin	-4.5996719616334	0
bin	-3.8243734793776	0
bin	-3.0490749971218	0
bin	-2.2737765148661	0
bin	-1.4984780326103	0
bin	-0.72317955035451	0
bin	0.052118931901262	0
bin	0.82741741415704	8
bin	1.6027158964128	0
bin	2.3780143786686	0
bin	3.1533128609244	0
bin	3.9286113431801	0
bin	4.7039098254359	0
bin	5.4792083076917	0
bin	6.2545067899475	0
bin	7.0298052722032	0
bin	7.805103754459	0
bin	8.5804022367148	0
bin	9.3557007189706	0
bin	10.130999201226	0
bin	10.906297683482	0
bin	11.681596165738	0
bin	12.456894647994	4
bin	13.232193130249	0
bin	14.007491612505	0
bin	14.782790094761	0
bin	15.558088577017	0
bin	16.333387059273	0
bin	17.108685541528	0
bin	17.883984023784	0
bin	18.65928250604	0
scalar LoRaNetworkTest.loRaNodes[10].LoRaNic.radio transmissionState:count 1796
attr interpolationmode sample-hold
attr source transmissionStateChanged
attr title "Radio transmission state, count"
scalar LoRaNetworkTest.loRaNodes[10].LoRaNic.radio receptionState:count 2200
attr interpolationmode sample-hold
attr source receptionStateChanged
attr title "Radio reception state, count"
scalar LoRaNetworkTest.loRaNodes[10].LoRaNic.radio radioMode:count 2985
attr interpolationmode sample-hold
attr source radioModeChanged
attr title "Radio mode, count"
scalar LoRaNetworkTest.loRaNodes[10].SimpleLoRaApp positionX 41.822062544525
scalar LoRaNetworkTest.loRaNodes[10].SimpleLoRaApp positionY 311.12250074744
scalar LoRaNetworkTest.loRaNodes[10].SimpleLoRaApp finalTP 3
scalar LoRaNetworkTest.loRaNodes[10].SimpleLoRaApp finalSF 12
scalar LoRaNetworkTest.loRaNodes[10].SimpleLoRaApp sentPackets 449
scalar LoRaNetworkTest.loRaNodes[10].SimpleLoRaApp receivedADRCommands 0
scalar LoRaNetworkTest.loRaNodes[10].SimpleLoRaApp LoRa_AppPacketSent:count 449
attr source LoRa_AppPacketSent
scalar LoRaNetworkTest.loRaNodes[11].LoRaNic.mac numRetry 0
scalar LoRaNetworkTest.loRaNodes[11].LoRaNic.mac numSentWithoutRetry 0
scalar LoRaNetworkTest.loRaNodes[11].LoRaNic.mac numGivenUp 0
scalar LoRaNetworkTest.loRaNodes[11].LoRaNic.mac numSent 766
scalar LoRaNetworkTest.loRaNodes[11].LoRaNic.mac numReceived 0
scalar LoRaNetworkTest.loRaNodes[11].LoRaNic.mac numSentBroadcast 0
scalar LoRaNetworkTest.loRaNodes[11].LoRaNic.mac numReceivedBroadcast 0
scalar LoRaNetworkTest.loRaNodes[11].LoRaNic.radio.transmitter LoRaTransmissionCreated:count 452
attr source LoRaTransmissionCreated
scalar LoRaNetworkTest.loRaNodes[11].LoRaNic.radio.receiver numCollisions 0
scalar LoRaNetworkTest.loRaNodes[11].LoRaNic.radio.receiver rcvBelowSensitivity 151
scalar LoRaNetworkTest.loRaNodes[11].LoRaNic.radio.receiver LoRaReceptionCollision:count 0
attr source LoRaReceptionCollision
scalar LoRaNetworkTest.loRaNodes[11].LoRaNic.radio.energyConsumer totalEnergyConsumed 102.84994484696
statistic LoRaNetworkTest.loRaNodes[11].LoRaNic.radio symbolErrorRate:histogram
field count 0
field mean nan
field stddev nan
field min nan
field max nan
field sum 0
field sqrsum 0
attr source symbolErrorRate
attr title "Symbol error rate, histogram"
bin	-inf	0
bin	-0.5	0
bin	-0.46666666666667	0
bin	-0.43333333333333	0
bin	-0.4	0
bin	-0.36666666666667	0
bin	-0.33333333333333	0
bin	-0.3	0
bin	-0.26666666666667	0
bin	-0.23333333333333	0
bin	-0.2	0
bin	-0.16666666666667	0
bin	-0.13333333333333	0
bin	-0.1	0
bin	-0.066666666666667	0
bin	-0.033333333333333	0
bin	-6.9388939039072e-018	0
bin	0.033333333333333	0
bin	0.066666666666667	0
bin	0.1	0
bin	0.13333333333333	0
bin	0.16666666666667	0
bin	0.2	0
bin	0.23333333333333	0
bin	0.26666666666667	0
bin	0.3	0
bin	0.33333333333333	0
bin	0.36666666666667	0
bin	0.4	0
bin	0.43333333333333	0
bin	0.46666666666667	0
bin	0.5	0
statistic LoRaNetworkTest.loRaNodes[11].LoRaNic.radio bitErrorRate:histogram
field count 0
field mean nan
field stddev nan
field min nan
field max nan
field sum 0
field sqrsum 0
attr source bitErrorRate
attr title "Bit error rate, histogram"
bin	-inf	0
bin	-0.5	0
bin	-0.46666666666667	0
bin	-0.43333333333333	0
bin	-0.4	0
bin	-0.36666666666667	0
bin	-0.33333333333333	0
bin	-0.3	0
bin	-0.26666666666667	0
bin	-0.23333333333333	0
bin	-0.2	0
bin	-0.16666666666667	0
bin	-0.13333333333333	0
bin	-0.1	0
bin	-0.066666666666667	0
bin	-0.033333333333333	0
bin	-6.9388939039072e-018	0
bin	0.033333333333333	0
bin	0.066666666666667	0
bin	0.1	0
bin	0.13333333333333	0
bin	0.16666666666667	0
bin	0.2	0
bin	0.23333333333333	0
bin	0.26666666666667	0
bin	0.3	0
bin	0.33333333333333	0
bin	0.36666666666667	0
bin	0.4	0
bin	0.43333333333333	0
bin	0.46666666666667	0
bin	0.5	0
statistic LoRaNetworkTest.loRaNodes[11].LoRaNic.radio packetErrorRate:histogram
field count 0
field mean nan
field stddev nan
field min nan
field max nan
field sum 0
field sqrsum 0
attr source packetErrorRate
attr title "Packet error rate, histogram"
bin	-inf	0
bin	-0.5	0
bin	-0.46666666666667	0
bin	-0.43333333333333	0
bin	-0.4	0
bin	-0.36666666666667	0
bin	-0.33333333333333	0
bin	-0.3	0
bin	-0.26666666666667	0
bin	-0.23333333333333	0
bin	-0.2	0
bin	-0.16666666666667	0
bin	-0.13333333333333	0
bin	-0.1	0
bin	-0.066666666666667	0
bin	-0.033333333333333	0
bin	-6.9388939039072e-018	0
bin	0.033333333333333	0
bin	0.066666666666667	0
bin	0.1	0
bin	0.13333333333333	0
bin	0.16666666666667	0
bin	0.2	0
bin	0.23333333333333	0
bin	0.26666666666667	0
bin	0.3	0
bin	0.33333333333333	0
bin	0.36666666666667	0
bin	0.4	0
bin	0.43333333333333	0
bin	0.46666666666667	0
bin	0.5	0
statistic LoRaNetworkTest.loRaNodes[11].LoRaNic.radio minSNIR:histogram
field count 8
field mean 3.5206832720323
field stddev 1.6257964382214
field min 2.2715002892643
field max 6.1231036532298
field sum 28.165466176258
field sqrsum 117.66418402548
attr source minSNIR
attr title "Min SNIR, histogram"
bin	-inf	0
bin	0.34569860728163	0
bin	0.60247216487932	0
bin	0.85924572247702	0
bin	1.1160192800747	0
bin	1.3727928376724	0
bin	1.6295663952701	0
bin	1.8863399528678	0
bin	2.1431135104655	2
bin	2.3998870680632	1
bin	2.6566606256609	0
bin	2.9134341832586	3
bin	3.1702077408563	0
bin	3.426981298454	0
bin	3.6837548560517	0
bin	3.9405284136494	0
bin	4.1973019712471	0
bin	4.4540755288447	0
bin	4.7108490864424	0
bin	4.9676226440401	0
bin	5.2243962016378	0
bin	5.4811697592355	0
bin	5.7379433168332	0
bin	5.9947168744309	2
bin	6.2514904320286	0
bin	6.5082639896263	0
bin	6.765037547224	0
bin	7.0218111048217	0
bin	7.2785846624194	0
bin	7.5353582200171	0
bin	7.7921317776148	0
bin	8.0489053352125	0
scalar LoRaNetworkTest.loRaNodes[11].LoRaNic.radio transmissionState:count 1808
attr interpolationmode sample-hold
attr source transmissionStateChanged
attr title "Radio transmission state, count"
scalar LoRaNetworkTest.loRaNodes[11].LoRaNic.radio receptionState:count 2208
attr interpolationmode sample-hold
attr source receptionStateChanged
attr title "Radio reception state, count"
scalar LoRaNetworkTest.loRaNodes[11].LoRaNic.radio radioMode:count 3004
attr interpolationmode sample-hold
attr source radioModeChanged
attr title "Radio mode, count"
scalar LoRaNetworkTest.loRaNodes[11].SimpleLoRaApp positionX 176.75593793392
scalar LoRaNetworkTest.loRaNodes[11].SimpleLoRaApp positionY 399.65752456337
scalar LoRaNetworkTest.loRaNodes[11].SimpleLoRaApp finalTP 3
scalar LoRaNetworkTest.loRaNodes[11].SimpleLoRaApp finalSF 12
scalar LoRaNetworkTest.loRaNodes[11].SimpleLoRaApp sentPackets 452
scalar LoRaNetworkTest.loRaNodes[11].SimpleLoRaApp receivedADRCommands 0
scalar LoRaNetworkTest.loRaNodes[11].SimpleLoRaApp LoRa_AppPacketSent:count 452
attr source LoRa_AppPacketSent
scalar LoRaNetworkTest.loRaNodes[12].LoRaNic.mac numRetry 0
scalar LoRaNetworkTest.loRaNodes[12].LoRaNic.mac numSentWithoutRetry 0
scalar LoRaNetworkTest.loRaNodes[12].LoRaNic.mac numGivenUp 0
scalar LoRaNetworkTest.loRaNodes[12].LoRaNic.mac numSent 761
scalar LoRaNetworkTest.loRaNodes[12].LoRaNic.mac numReceived 0
scalar LoRaNetworkTest.loRaNodes[12].LoRaNic.mac numSentBroadcast 0
scalar LoRaNetworkTest.loRaNodes[12].LoRaNic.mac numReceivedBroadcast 0
scalar LoRaNetworkTest.loRaNodes[12].LoRaNic.radio.transmitter LoRaTransmissionCreated:count 445
attr source LoRaTransmissionCreated
scalar LoRaNetworkTest.loRaNodes[12].LoRaNic.radio.receiver numCollisions 0
scalar LoRaNetworkTest.loRaNodes[12].LoRaNic.radio.receiver rcvBelowSensitivity 99
scalar LoRaNetworkTest.loRaNodes[12].LoRaNic.radio.receiver LoRaReceptionCollision:count 0
attr source LoRaReceptionCollision
scalar LoRaNetworkTest.loRaNodes[12].LoRaNic.radio.energyConsumer totalEnergyConsumed 101.71194754588
statistic LoRaNetworkTest.loRaNodes[12].LoRaNic.radio symbolErrorRate:histogram
field count 0
field mean nan
field stddev nan
field min nan
field max nan
field sum 0
field sqrsum 0
attr source symbolErrorRate
attr title "Symbol error rate, histogram"
bin	-inf	0
bin	-0.5	0
bin	-0.46666666666667	0
bin	-0.43333333333333	0
bin	-0.4	0
bin	-0.36666666666667	0
bin	-0.33333333333333	0
bin	-0.3	0
bin	-0.26666666666667	0
bin	-0.23333333333333	0
bin	-0.2	0
bin	-0.16666666666667	0
bin	-0.13333333333333	0
bin	-0.1	0
bin	-0.066666666666667	0
bin	-0.033333333333333	0
bin	-6.9388939039072e-018	0
bin	0.033333333333333	0
bin	0.066666666666667	0
bin	0.1	0
bin	0.13333333333333	0
bin	0.16666666666667	0
bin	0.2	0
bin	0.23333333333333	0
bin	0.26666666666667	0
bin	0.3	0
bin	0.33333333333333	0
bin	0.36666666666667	0
bin	0.4	0
bin	0.43333333333333	0
bin	0.46666666666667	0
bin	0.5	0
statistic LoRaNetworkTest.loRaNodes[12].LoRaNic.radio bitErrorRate:histogram
field count 0
field mean nan
field stddev nan
field min nan
field max nan
field sum 0
field sqrsum 0
attr source bitErrorRate
attr title "Bit error rate, histogram"
bin	-inf	0
bin	-0.5	0
bin	-0.46666666666667	0
bin	-0.43333333333333	0
bin	-0.4	0
bin	-0.36666666666667	0
bin	-0.33333333333333	0
bin	-0.3	0
bin	-0.26666666666667	0
bin	-0.23333333333333	0
bin	-0.2	0
bin	-0.16666666666667	0
bin	-0.13333333333333	0
bin	-0.1	0
bin	-0.066666666666667	0
bin	-0.033333333333333	0
bin	-6.9388939039072e-018	0
bin	0.033333333333333	0
bin	0.066666666666667	0
bin	0.1	0
bin	0.13333333333333	0
bin	0.16666666666667	0
bin	0.2	0
bin	0.23333333333333	0
bin	0.26666666666667	0
bin	0.3	0
bin	0.33333333333333	0
bin	0.36666666666667	0
bin	0.4	0
bin	0.43333333333333	0
bin	0.46666666666667	0
bin	0.5	0
statistic LoRaNetworkTest.loRaNodes[12].LoRaNic.radio packetErrorRate:histogram
field count 0
field mean nan
field stddev nan
field min nan
field max nan
field sum 0
field sqrsum 0
attr source packetErrorRate
attr title "Packet error rate, histogram"
bin	-inf	0
bin	-0.5	0
bin	-0.46666666666667	0
bin	-0.43333333333333	0
bin	-0.4	0
bin	-0.36666666666667	0
bin	-0.33333333333333	0
bin	-0.3	0
bin	-0.26666666666667	0
bin	-0.23333333333333	0
bin	-0.2	0
bin	-0.16666666666667	0
bin	-0.13333333333333	0
bin	-0.1	0
bin	-0.066666666666667	0
bin	-0.033333333333333	0
bin	-6.9388939039072e-018	0
bin	0.033333333333333	0
bin	0.066666666666667	0
bin	0.1	0
bin	0.13333333333333	0
bin	0.16666666666667	0
bin	0.2	0
bin	0.23333333333333	0
bin	0.26666666666667	0
bin	0.3	0
bin	0.33333333333333	0
bin	0.36666666666667	0
bin	0.4	0
bin	0.43333333333333	0
bin	0.46666666666667	0
bin	0.5	0
statistic LoRaNetworkTest.loRaNodes[12].LoRaNic.radio minSNIR:histogram
field count 16
field mean 4.24385849972
field stddev 3.5060135155796
field min 1.5927922314128
field max 9.6866473656895
field sum 67.90173599552
field sqrsum 472.54732102173
attr source minSNIR
attr title "Min SNIR, histogram"
bin	-inf	0
bin	-2.4541353357256	0
bin	-1.9145449934405	0
bin	-1.3749546511554	0
bin	-0.83536430887027	0
bin	-0.29577396658515	0
bin	0.24381637569996	0
bin	0.78340671798508	0
bin	1.3229970602702	2
bin	1.8625874025553	9
bin	2.4021777448404	0
bin	2.9417680871256	0
bin	3.4813584294107	0
bin	4.0209487716958	0
bin	4.5605391139809	0
bin	5.100129456266	0
bin	5.6397197985511	0
bin	6.1793101408363	0
bin	6.7189004831214	0
bin	7.2584908254065	0
bin	7.7980811676916	0
bin	8.3376715099767	2
bin	8.8772618522618	0
bin	9.416852194547	3
bin	9.9564425368321	0
bin	10.496032879117	0
bin	11.035623221402	0
bin	11.575213563687	0
bin	12.114803905973	0
bin	12.654394248258	0
bin	13.193984590543	0
bin	13.733574932828	0
scalar LoRaNetworkTest.loRaNodes[12].LoRaNic.radio transmissionState:count 1780
attr interpolationmode sample-hold
attr source transmissionStateChanged
attr title "Radio transmission state, count"
scalar LoRaNetworkTest.loRaNodes[12].LoRaNic.radio receptionState:count 2064
attr interpolationmode sample-hold
attr source receptionStateChanged
attr title "Radio reception state, count"
scalar LoRaNetworkTest.loRaNodes[12].LoRaNic.radio radioMode:count 2867
attr interpolationmode sample-hold
attr source radioModeChanged
attr title "Radio mode, count"
scalar LoRaNetworkTest.loRaNodes[12].SimpleLoRaApp positionX 373.51524330676
scalar LoRaNetworkTest.loRaNodes[12].SimpleLoRaApp positionY 67.368373163044
scalar LoRaNetworkTest.loRaNodes[12].SimpleLoRaApp finalTP 3
scalar LoRaNetworkTest.loRaNodes[12].SimpleLoRaApp finalSF 12
scalar LoRaNetworkTest.loRaNodes[12].SimpleLoRaApp sentPackets 445
scalar LoRaNetworkTest.loRaNodes[12].SimpleLoRaApp receivedADRCommands 0
scalar LoRaNetworkTest.loRaNodes[12].SimpleLoRaApp LoRa_AppPacketSent:count 445
attr source LoRa_AppPacketSent
scalar LoRaNetworkTest.loRaNodes[13].LoRaNic.mac numRetry 0
scalar LoRaNetworkTest.loRaNodes[13].LoRaNic.mac numSentWithoutRetry 0
scalar LoRaNetworkTest.loRaNodes[13].LoRaNic.mac numGivenUp 0
scalar LoRaNetworkTest.loRaNodes[13].LoRaNic.mac numSent 761
scalar LoRaNetworkTest.loRaNodes[13].LoRaNic.mac numReceived 0
scalar LoRaNetworkTest.loRaNodes[13].LoRaNic.mac numSentBroadcast 0
scalar LoRaNetworkTest.loRaNodes[13].LoRaNic.mac numReceivedBroadcast 0
scalar LoRaNetworkTest.loRaNodes[13].LoRaNic.radio.transmitter LoRaTransmissionCreated:count 439
attr source LoRaTransmissionCreated
scalar LoRaNetworkTest.loRaNodes[13].LoRaNic.radio.receiver numCollisions 0
scalar LoRaNetworkTest.loRaNodes[13].LoRaNic.radio.receiver rcvBelowSensitivity 137
scalar LoRaNetworkTest.loRaNodes[13].LoRaNic.radio.receiver LoRaReceptionCollision:count 0
attr source LoRaReceptionCollision
scalar LoRaNetworkTest.loRaNodes[13].LoRaNic.radio.energyConsumer totalEnergyConsumed 102.05474621023
statistic LoRaNetworkTest.loRaNodes[13].LoRaNic.radio symbolErrorRate:histogram
field count 0
field mean nan
field stddev nan
field min nan
field max nan
field sum 0
field sqrsum 0
attr source symbolErrorRate
attr title "Symbol error rate, histogram"
bin	-inf	0
bin	-0.5	0
bin	-0.46666666666667	0
bin	-0.43333333333333	0
bin	-0.4	0
bin	-0.36666666666667	0
bin	-0.33333333333333	0
bin	-0.3	0
bin	-0.26666666666667	0
bin	-0.23333333333333	0
bin	-0.2	0
bin	-0.16666666666667	0
bin	-0.13333333333333	0
bin	-0.1	0
bin	-0.066666666666667	0
bin	-0.033333333333333	0
bin	-6.9388939039072e-018	0
bin	0.033333333333333	0
bin	0.066666666666667	0
bin	0.1	0
bin	0.13333333333333	0
bin	0.16666666666667	0
bin	0.2	0
bin	0.23333333333333	0
bin	0.26666666666667	0
bin	0.3	0
bin	0.33333333333333	0
bin	0.36666666666667	0
bin	0.4	0
bin	0.43333333333333	0
bin	0.46666666666667	0
bin	0.5	0
statistic LoRaNetworkTest.loRaNodes[13].LoRaNic.radio bitErrorRate:histogram
field count 0
field mean nan
field stddev nan
field min nan
field max nan
field sum 0
field sqrsum 0
attr source bitErrorRate
attr title "Bit error rate, histogram"
bin	-inf	0
bin	-0.5	0
bin	-0.46666666666667	0
bin	-0.43333333333333	0
bin	-0.4	0
bin	-0.36666666666667	0
bin	-0.33333333333333	0
bin	-0.3	0
bin	-0.26666666666667	0
bin	-0.23333333333333	0
bin	-0.2	0
bin	-0.16666666666667	0
bin	-0.13333333333333	0
bin	-0.1	0
bin	-0.066666666666667	0
bin	-0.033333333333333	0
bin	-6.9388939039072e-018	0
bin	0.033333333333333	0
bin	0.066666666666667	0
bin	0.1	0
bin	0.13333333333333	0
bin	0.16666666666667	0
bin	0.2	0
bin	0.23333333333333	0
bin	0.26666666666667	0
bin	0.3	0
bin	0.33333333333333	0
bin	0.36666666666667	0
bin	0.4	0
bin	0.43333333333333	0
bin	0.46666666666667	0
bin	0.5	0
statistic LoRaNetworkTest.loRaNodes[13].LoRaNic.radio packetErrorRate:histogram
field count 0
field mean nan
field stddev nan
field min nan
field max nan
field sum 0
field sqrsum 0
attr source packetErrorRate
attr title "Packet error rate, histogram"
bin	-inf	0
bin	-0.5	0
bin	-0.46666666666667	0
bin	-0.43333333333333	0
bin	-0.4	0
bin	-0.36666666666667	0
bin	-0.33333333333333	0
bin	-0.3	0
bin	-0.26666666666667	0
bin	-0.23333333333333	0
bin	-0.2	0
bin	-0.16666666666667	0
bin	-0.13333333333333	0
bin	-0.1	0
bin	-0.066666666666667	0
bin	-0.033333333333333	0
bin	-6.9388939039072e-018	0
bin	0.033333333333333	0
bin	0.066666666666667	0
bin	0.1	0
bin	0.13333333333333	0
bin	0.16666666666667	0
bin	0.2	0
bin	0.23333333333333	0
bin	0.26666666666667	0
bin	0.3	0
bin	0.33333333333333	0
bin	0.36666666666667	0
bin	0.4	0
bin	0.43333333333333	0
bin	0.46666666666667	0
bin	0.5	0
statistic LoRaNetworkTest.loRaNodes[13].LoRaNic.radio minSNIR:histogram
field count 3
field mean 1.4802249763126
field stddev 0.50299639568758
field min 1.0495658094362
field max 2.0330525383577
field sum 4.4406749289379
field sqrsum 7.0792086896486
attr source minSNIR
attr title "Min SNIR, histogram"
bin	-inf	0
[...]
scalar LoRaNetworkTest.gwRouter[0].networkLayer.arp initiatedARPResolution:count 0
attr title "ARP initiated resolutions, count"
scalar LoRaNetworkTest.gwRouter[0].lo0.lo droppedPkBitError:count 0
attr interpolationmode none
attr source dropPkBitError
attr title "packets dropped/bit error, count"
scalar LoRaNetworkTest.gwRouter[0].lo0.lo droppedPkBitError:sum(packetBytes) 0
attr interpolationmode none
attr source dropPkBitError
attr title "packets dropped/bit error, sum(packetBytes)"
scalar LoRaNetworkTest.gwRouter[0].lo0.lo rcvdPkFromHL:count 0
attr interpolationmode none
attr source packetReceivedFromUpper
attr title "packets received from higher layer, count"
scalar LoRaNetworkTest.gwRouter[0].lo0.lo rcvdPkFromHL:sum(packetBytes) 0
attr interpolationmode none
attr source packetReceivedFromUpper
attr title "packets received from higher layer, sum(packetBytes)"
scalar LoRaNetworkTest.gwRouter[0].lo0.lo passedUpPk:count 0
attr interpolationmode none
attr source packetSentToUpper
attr title "packets passed to higher layer, count"
scalar LoRaNetworkTest.gwRouter[0].lo0.lo passedUpPk:sum(packetBytes) 0
attr interpolationmode none
attr source packetSentToUpper
attr title "packets passed to higher layer, sum(packetBytes)"
scalar LoRaNetworkTest.gwRouter[0].eth[0].mac "simulated time" 206863.3523251
scalar LoRaNetworkTest.gwRouter[0].eth[0].mac full-duplex 1
scalar LoRaNetworkTest.gwRouter[0].eth[0].mac "frames/sec sent" 0.0066130611566716
scalar LoRaNetworkTest.gwRouter[0].eth[0].mac "frames/sec rcvd" 0.037212971333376
scalar LoRaNetworkTest.gwRouter[0].eth[0].mac "bits/sec sent" 3.3858873122158
scalar LoRaNetworkTest.gwRouter[0].eth[0].mac "bits/sec rcvd" 19.053041322688
scalar LoRaNetworkTest.gwRouter[0].eth[0].mac "rx channel idle (%)" 99.999997856533
scalar LoRaNetworkTest.gwRouter[0].eth[0].mac "rx channel utilization (%)" 2.1434671488024e-006
scalar LoRaNetworkTest.gwRouter[0].eth[0].mac rxPkFromHL:count 797
attr interpolationmode none
attr source rxPkFromHL
attr title "packet bytes from higher layer, count"
scalar LoRaNetworkTest.gwRouter[0].eth[0].mac rxPkFromHL:sum(packetBytes) 51008
attr interpolationmode none
attr source rxPkFromHL
attr title "packet bytes from higher layer, sum(packetBytes)"
scalar LoRaNetworkTest.gwRouter[0].eth[0].mac rxPausePkUnits:count 0
attr interpolationmode none
attr title "pause units received, count"
scalar LoRaNetworkTest.gwRouter[0].eth[0].mac rxPausePkUnits:sum 0
attr interpolationmode none
attr title "pause units received, sum"
scalar LoRaNetworkTest.gwRouter[0].eth[0].mac txPausePkUnits:count 0
attr interpolationmode none
attr title "pause units sent, count"
scalar LoRaNetworkTest.gwRouter[0].eth[0].mac txPausePkUnits:sum 0
attr interpolationmode none
attr title "pause units sent, sum"
scalar LoRaNetworkTest.gwRouter[0].eth[0].mac txPk:count 797
attr interpolationmode none
attr source txPk
attr title "packets transmitted, count"
scalar LoRaNetworkTest.gwRouter[0].eth[0].mac txPk:sum(packetBytes) 51008
attr interpolationmode none
attr source txPk
attr title "packets transmitted, sum(packetBytes)"
scalar LoRaNetworkTest.gwRouter[0].eth[0].mac droppedPkNotForUs:count 0
attr interpolationmode none
attr source dropPkNotForUs
attr title "packets dropped/not for us, count"
scalar LoRaNetworkTest.gwRouter[0].eth[0].mac droppedPkNotForUs:sum(packetBytes) 0
attr interpolationmode none
attr source dropPkNotForUs
attr title "packets dropped/not for us, sum(packetBytes)"
scalar LoRaNetworkTest.gwRouter[0].eth[0].mac droppedPkBitError:count 0
attr interpolationmode none
attr source dropPkBitError
attr title "packets dropped/bit error, count"
scalar LoRaNetworkTest.gwRouter[0].eth[0].mac droppedPkBitError:sum(packetBytes) 0
attr interpolationmode none
attr source dropPkBitError
attr title "packets dropped/bit error, sum(packetBytes)"
scalar LoRaNetworkTest.gwRouter[0].eth[0].mac droppedPkIfaceDown:count 0
attr interpolationmode none
attr source dropPkIfaceDown
attr title "packets dropped/interface down, count"
scalar LoRaNetworkTest.gwRouter[0].eth[0].mac droppedPkIfaceDown:sum(packetBytes) 0
attr interpolationmode none
attr source dropPkIfaceDown
attr title "packets dropped/interface down, sum(packetBytes)"
scalar LoRaNetworkTest.gwRouter[0].eth[0].mac rxPkOk:count 4425
attr interpolationmode none
attr source rxPkOk
attr title "packets received OK, count"
scalar LoRaNetworkTest.gwRouter[0].eth[0].mac rxPkOk:sum(packetBytes) 283200
attr interpolationmode none
attr source rxPkOk
attr title "packets received OK, sum(packetBytes)"
scalar LoRaNetworkTest.gwRouter[0].eth[0].mac passedUpPk:count 4425
attr interpolationmode none
attr source packetSentToUpper
attr title "packets passed to higher layer, count"
scalar LoRaNetworkTest.gwRouter[0].eth[0].mac passedUpPk:sum(packetBytes) 283200
attr interpolationmode none
attr source packetSentToUpper
attr title "packets passed to higher layer, sum(packetBytes)"
scalar LoRaNetworkTest.gwRouter[0].eth[0].encap pauseSent:count 0
attr title "pause sent, count"
scalar LoRaNetworkTest.gwRouter[0].eth[0].encap pauseSent:sum 0
attr title "pause sent, sum"
scalar LoRaNetworkTest.gwRouter[0].eth[0].encap decapPk:count 4425
attr interpolationmode none
attr source decapPk
attr title "packets decapsulated, count"
scalar LoRaNetworkTest.gwRouter[0].eth[0].encap decapPk:sum(packetBytes) 152924
attr interpolationmode none
attr source decapPk
attr title "packets decapsulated, sum(packetBytes)"
scalar LoRaNetworkTest.gwRouter[0].eth[0].encap encapPk:count 797
attr interpolationmode none
attr source encapPk
attr title "packets encapsulated, count"
scalar LoRaNetworkTest.gwRouter[0].eth[0].encap encapPk:sum(packetBytes) 22316
attr interpolationmode none
attr source encapPk
attr title "packets encapsulated, sum(packetBytes)"
scalar LoRaNetworkTest.gwRouter[0].ppp[0].queue queueLength:max nan
attr interpolationmode sample-hold
attr title "queue length, max"
scalar LoRaNetworkTest.gwRouter[0].ppp[0].queue queueLength:timeavg nan
attr interpolationmode sample-hold
attr title "queue length, timeavg"
statistic LoRaNetworkTest.gwRouter[0].ppp[0].queue queueingTime:histogram
field count 3628
field mean 0
field stddev 0
field min 0
field max 0
field sum 0
field sqrsum 0
attr interpolationmode none
attr title "queueing time, histogram"
bin	-inf	0
bin	-0.5	0
bin	-0.46666666666667	0
bin	-0.43333333333333	0
bin	-0.4	0
bin	-0.36666666666667	0
bin	-0.33333333333333	0
bin	-0.3	0
bin	-0.26666666666667	0
bin	-0.23333333333333	0
bin	-0.2	0
bin	-0.16666666666667	0
bin	-0.13333333333333	0
bin	-0.1	0
bin	-0.066666666666667	0
bin	-0.033333333333333	0
bin	-6.9388939039072e-018	3628
bin	0.033333333333333	0
bin	0.066666666666667	0
bin	0.1	0
bin	0.13333333333333	0
bin	0.16666666666667	0
bin	0.2	0
bin	0.23333333333333	0
bin	0.26666666666667	0
bin	0.3	0
bin	0.33333333333333	0
bin	0.36666666666667	0
bin	0.4	0
bin	0.43333333333333	0
bin	0.46666666666667	0
bin	0.5	0
scalar LoRaNetworkTest.gwRouter[0].ppp[0].queue dropPk:count 0
attr interpolationmode none
attr source dropPkByQueue
attr title "dropped packets, count"
scalar LoRaNetworkTest.gwRouter[0].ppp[0].queue dropPk:sum(packetBytes) 0
attr interpolationmode none
attr source dropPkByQueue
attr title "dropped packets, sum(packetBytes)"
scalar LoRaNetworkTest.gwRouter[0].ppp[0].queue rcvdPk:count 3628
attr interpolationmode none
attr title "received packets, count"
scalar LoRaNetworkTest.gwRouter[0].ppp[0].queue rcvdPk:sum(packetBytes) 130608
attr interpolationmode none
attr title "received packets, sum(packetBytes)"
scalar LoRaNetworkTest.gwRouter[0].ppp[0].ppp droppedPkBitError:count 0
attr interpolationmode none
attr source dropPkBitError
attr title "packets dropped/bit error, count"
scalar LoRaNetworkTest.gwRouter[0].ppp[0].ppp droppedPkBitError:sum(packetBytes) 0
attr interpolationmode none
attr source dropPkBitError
attr title "packets dropped/bit error, sum(packetBytes)"
scalar LoRaNetworkTest.gwRouter[0].ppp[0].ppp droppedPkIfaceDown:count 0
attr interpolationmode none
attr source dropPkIfaceDown
attr title "packets dropped/interface down, count"
scalar LoRaNetworkTest.gwRouter[0].ppp[0].ppp droppedPkIfaceDown:sum(packetBytes) 0
attr interpolationmode none
attr source dropPkIfaceDown
attr title "packets dropped/interface down, sum(packetBytes)"
scalar LoRaNetworkTest.gwRouter[0].ppp[0].ppp rxPkOk:count 0
attr interpolationmode none
attr source rxPkOk
attr title "packets received OK, count"
scalar LoRaNetworkTest.gwRouter[0].ppp[0].ppp rxPkOk:sum(packetBytes) 0
attr interpolationmode none
attr source rxPkOk
attr title "packets received OK, sum(packetBytes)"
scalar LoRaNetworkTest.gwRouter[0].ppp[0].ppp txState:timeavg 1.0361792528905e-008
attr interpolationmode sample-hold
attr title "tx state, timeavg"
scalar LoRaNetworkTest.gwRouter[0].ppp[0].ppp rcvdPkFromHL:count 3628
attr interpolationmode none
attr source packetReceivedFromUpper
attr title "packets received from higher layer, count"
scalar LoRaNetworkTest.gwRouter[0].ppp[0].ppp rcvdPkFromHL:sum(packetBytes) 130608
attr interpolationmode none
attr source packetReceivedFromUpper
attr title "packets received from higher layer, sum(packetBytes)"
scalar LoRaNetworkTest.gwRouter[0].ppp[0].ppp passedUpPk:count 0
attr interpolationmode none
attr source packetSentToUpper
attr title "packets passed to higher layer, count"
scalar LoRaNetworkTest.gwRouter[0].ppp[0].ppp passedUpPk:sum(packetBytes) 0
attr interpolationmode none
attr source packetSentToUpper
attr title "packets passed to higher layer, sum(packetBytes)"
scalar LoRaNetworkTest.gwRouter[0].ppp[0].ppp txPk:count 3628
attr interpolationmode none
attr source packetSentToLower
attr title "packets transmitted, count"
scalar LoRaNetworkTest.gwRouter[0].ppp[0].ppp txPk:sum(packetBytes) 156004
attr interpolationmode none
attr source packetSentToLower
attr title "packets transmitted, sum(packetBytes)"
scalar LoRaNetworkTest.nsRouter.networkLayer.arp sentReply:count 0
attr title "ARP replies sent, count"
scalar LoRaNetworkTest.nsRouter.networkLayer.arp sentReq:count 797
attr title "ARP request sent, count"
scalar LoRaNetworkTest.nsRouter.networkLayer.arp failedARPResolution:count 0
attr title "ARP failed resolutions, count"
scalar LoRaNetworkTest.nsRouter.networkLayer.arp completedARPResolution:count 797
attr title "ARP completed resolutions, count"
scalar LoRaNetworkTest.nsRouter.networkLayer.arp initiatedARPResolution:count 797
attr title "ARP initiated resolutions, count"
scalar LoRaNetworkTest.nsRouter.lo0.lo droppedPkBitError:count 0
attr interpolationmode none
attr source dropPkBitError
attr title "packets dropped/bit error, count"
scalar LoRaNetworkTest.nsRouter.lo0.lo droppedPkBitError:sum(packetBytes) 0
attr interpolationmode none
attr source dropPkBitError
attr title "packets dropped/bit error, sum(packetBytes)"
scalar LoRaNetworkTest.nsRouter.lo0.lo rcvdPkFromHL:count 0
attr interpolationmode none
attr source packetReceivedFromUpper
attr title "packets received from higher layer, count"
scalar LoRaNetworkTest.nsRouter.lo0.lo rcvdPkFromHL:sum(packetBytes) 0
attr interpolationmode none
attr source packetReceivedFromUpper
attr title "packets received from higher layer, sum(packetBytes)"
scalar LoRaNetworkTest.nsRouter.lo0.lo passedUpPk:count 0
attr interpolationmode none
attr source packetSentToUpper
attr title "packets passed to higher layer, count"
scalar LoRaNetworkTest.nsRouter.lo0.lo passedUpPk:sum(packetBytes) 0
attr interpolationmode none
attr source packetSentToUpper
attr title "packets passed to higher layer, sum(packetBytes)"
scalar LoRaNetworkTest.nsRouter.eth[0].mac "simulated time" 206863.3523251
scalar LoRaNetworkTest.nsRouter.eth[0].mac full-duplex 1
scalar LoRaNetworkTest.nsRouter.eth[0].mac "frames/sec sent" 0.037212971333376
scalar LoRaNetworkTest.nsRouter.eth[0].mac "frames/sec rcvd" 0.0066130611566716
scalar LoRaNetworkTest.nsRouter.eth[0].mac "bits/sec sent" 19.053041322688
scalar LoRaNetworkTest.nsRouter.eth[0].mac "bits/sec rcvd" 3.3858873122158
scalar LoRaNetworkTest.nsRouter.eth[0].mac "rx channel idle (%)" 99.999999619088
scalar LoRaNetworkTest.nsRouter.eth[0].mac "rx channel utilization (%)" 3.8091232262428e-007
scalar LoRaNetworkTest.nsRouter.eth[0].mac rxPkFromHL:count 4425
attr interpolationmode none
attr source rxPkFromHL
attr title "packet bytes from higher layer, count"
scalar LoRaNetworkTest.nsRouter.eth[0].mac rxPkFromHL:sum(packetBytes) 283200
attr interpolationmode none
attr source rxPkFromHL
attr title "packet bytes from higher layer, sum(packetBytes)"
scalar LoRaNetworkTest.nsRouter.eth[0].mac rxPausePkUnits:count 0
attr interpolationmode none
attr title "pause units received, count"
scalar LoRaNetworkTest.nsRouter.eth[0].mac rxPausePkUnits:sum 0
attr interpolationmode none
attr title "pause units received, sum"
scalar LoRaNetworkTest.nsRouter.eth[0].mac txPausePkUnits:count 0
attr interpolationmode none
attr title "pause units sent, count"
scalar LoRaNetworkTest.nsRouter.eth[0].mac txPausePkUnits:sum 0
attr interpolationmode none
attr title "pause units sent, sum"
scalar LoRaNetworkTest.nsRouter.eth[0].mac txPk:count 4425
attr interpolationmode none
attr source txPk
attr title "packets transmitted, count"
scalar LoRaNetworkTest.nsRouter.eth[0].mac txPk:sum(packetBytes) 283200
attr interpolationmode none
attr source txPk
attr title "packets transmitted, sum(packetBytes)"
scalar LoRaNetworkTest.nsRouter.eth[0].mac droppedPkNotForUs:count 0
attr interpolationmode none
attr source dropPkNotForUs
attr title "packets dropped/not for us, count"
scalar LoRaNetworkTest.nsRouter.eth[0].mac droppedPkNotForUs:sum(packetBytes) 0
attr interpolationmode none
attr source dropPkNotForUs
attr title "packets dropped/not for us, sum(packetBytes)"
scalar LoRaNetworkTest.nsRouter.eth[0].mac droppedPkBitError:count 0
attr interpolationmode none
attr source dropPkBitError
attr title "packets dropped/bit error, count"
scalar LoRaNetworkTest.nsRouter.eth[0].mac droppedPkBitError:sum(packetBytes) 0
attr interpolationmode none
attr source dropPkBitError
attr title "packets dropped/bit error, sum(packetBytes)"
scalar LoRaNetworkTest.nsRouter.eth[0].mac droppedPkIfaceDown:count 0
attr interpolationmode none
attr source dropPkIfaceDown
attr title "packets dropped/interface down, count"
scalar LoRaNetworkTest.nsRouter.eth[0].mac droppedPkIfaceDown:sum(packetBytes) 0
attr interpolationmode none
attr source dropPkIfaceDown
attr title "packets dropped/interface down, sum(packetBytes)"
scalar LoRaNetworkTest.nsRouter.eth[0].mac rxPkOk:count 797
attr interpolationmode none
attr source rxPkOk
attr title "packets received OK, count"
scalar LoRaNetworkTest.nsRouter.eth[0].mac rxPkOk:sum(packetBytes) 51008
attr interpolationmode none
attr source rxPkOk
attr title "packets received OK, sum(packetBytes)"
scalar LoRaNetworkTest.nsRouter.eth[0].mac passedUpPk:count 797
attr interpolationmode none
attr source packetSentToUpper
attr title "packets passed to higher layer, count"
scalar LoRaNetworkTest.nsRouter.eth[0].mac passedUpPk:sum(packetBytes) 51008
attr interpolationmode none
attr source packetSentToUpper
attr title "packets passed to higher layer, sum(packetBytes)"
scalar LoRaNetworkTest.nsRouter.eth[0].encap pauseSent:count 0
attr title "pause sent, count"
scalar LoRaNetworkTest.nsRouter.eth[0].encap pauseSent:sum 0
attr title "pause sent, sum"
scalar LoRaNetworkTest.nsRouter.eth[0].encap decapPk:count 797
attr interpolationmode none
attr source decapPk
attr title "packets decapsulated, count"
scalar LoRaNetworkTest.nsRouter.eth[0].encap decapPk:sum(packetBytes) 22316
attr interpolationmode none
attr source decapPk
attr title "packets decapsulated, sum(packetBytes)"
scalar LoRaNetworkTest.nsRouter.eth[0].encap encapPk:count 4425
attr interpolationmode none
attr source encapPk
attr title "packets encapsulated, count"
scalar LoRaNetworkTest.nsRouter.eth[0].encap encapPk:sum(packetBytes) 152924
attr interpolationmode none
attr source encapPk
attr title "packets encapsulated, sum(packetBytes)"
scalar LoRaNetworkTest.nsRouter.ppp[0].queue queueLength:max nan
attr interpolationmode sample-hold
attr title "queue length, max"
scalar LoRaNetworkTest.nsRouter.ppp[0].queue queueLength:timeavg nan
attr interpolationmode sample-hold
attr title "queue length, timeavg"
statistic LoRaNetworkTest.nsRouter.ppp[0].queue queueingTime:histogram
field count 0
field mean nan
field stddev nan
field min nan
field max nan
field sum 0
field sqrsum 0
attr interpolationmode none
attr title "queueing time, histogram"
bin	-inf	0
bin	-0.5	0
bin	-0.46666666666667	0
bin	-0.43333333333333	0
bin	-0.4	0
bin	-0.36666666666667	0
bin	-0.33333333333333	0
bin	-0.3	0
bin	-0.26666666666667	0
bin	-0.23333333333333	0
bin	-0.2	0
bin	-0.16666666666667	0
bin	-0.13333333333333	0
bin	-0.1	0
bin	-0.066666666666667	0
bin	-0.033333333333333	0
bin	-6.9388939039072e-018	0
bin	0.033333333333333	0
bin	0.066666666666667	0
bin	0.1	0
bin	0.13333333333333	0
bin	0.16666666666667	0
bin	0.2	0
bin	0.23333333333333	0
bin	0.26666666666667	0
bin	0.3	0
bin	0.33333333333333	0
bin	0.36666666666667	0
bin	0.4	0
bin	0.43333333333333	0
bin	0.46666666666667	0
bin	0.5	0
scalar LoRaNetworkTest.nsRouter.ppp[0].queue dropPk:count 0
attr interpolationmode none
attr source dropPkByQueue
attr title "dropped packets, count"
scalar LoRaNetworkTest.nsRouter.ppp[0].queue dropPk:sum(packetBytes) 0
attr interpolationmode none
attr source dropPkByQueue
attr title "dropped packets, sum(packetBytes)"
scalar LoRaNetworkTest.nsRouter.ppp[0].queue rcvdPk:count 0
attr interpolationmode none
attr title "received packets, count"
scalar LoRaNetworkTest.nsRouter.ppp[0].queue rcvdPk:sum(packetBytes) 0
attr interpolationmode none
attr title "received packets, sum(packetBytes)"
scalar LoRaNetworkTest.nsRouter.ppp[0].ppp droppedPkBitError:count 0
attr interpolationmode none
attr source dropPkBitError
attr title "packets dropped/bit error, count"
scalar LoRaNetworkTest.nsRouter.ppp[0].ppp droppedPkBitError:sum(packetBytes) 0
attr interpolationmode none
attr source dropPkBitError
attr title "packets dropped/bit error, sum(packetBytes)"
scalar LoRaNetworkTest.nsRouter.ppp[0].ppp droppedPkIfaceDown:count 0
attr interpolationmode none
attr source dropPkIfaceDown
attr title "packets dropped/interface down, count"
scalar LoRaNetworkTest.nsRouter.ppp[0].ppp droppedPkIfaceDown:sum(packetBytes) 0
attr interpolationmode none
attr source dropPkIfaceDown
attr title "packets dropped/interface down, sum(packetBytes)"
scalar LoRaNetworkTest.nsRouter.ppp[0].ppp rxPkOk:count 3628
attr interpolationmode none
attr source rxPkOk
attr title "packets received OK, count"
scalar LoRaNetworkTest.nsRouter.ppp[0].ppp rxPkOk:sum(packetBytes) 156004
attr interpolationmode none
attr source rxPkOk
attr title "packets received OK, sum(packetBytes)"
scalar LoRaNetworkTest.nsRouter.ppp[0].ppp txState:timeavg nan
attr interpolationmode sample-hold
attr title "tx state, timeavg"
scalar LoRaNetworkTest.nsRouter.ppp[0].ppp rcvdPkFromHL:count 0
attr interpolationmode none
attr source packetReceivedFromUpper
attr title "packets received from higher layer, count"
scalar LoRaNetworkTest.nsRouter.ppp[0].ppp rcvdPkFromHL:sum(packetBytes) 0
attr interpolationmode none
attr source packetReceivedFromUpper
attr title "packets received from higher layer, sum(packetBytes)"
scalar LoRaNetworkTest.nsRouter.ppp[0].ppp passedUpPk:count 3628
attr interpolationmode none
attr source packetSentToUpper
attr title "packets passed to higher layer, count"
scalar LoRaNetworkTest.nsRouter.ppp[0].ppp passedUpPk:sum(packetBytes) 130608
attr interpolationmode none
attr source packetSentToUpper
attr title "packets passed to higher layer, sum(packetBytes)"
scalar LoRaNetworkTest.nsRouter.ppp[0].ppp txPk:count 0
attr interpolationmode none
attr source packetSentToLower
attr title "packets transmitted, count"
scalar LoRaNetworkTest.nsRouter.ppp[0].ppp txPk:sum(packetBytes) 0
attr interpolationmode none
attr source packetSentToLower
attr title "packets transmitted, sum(packetBytes)"

