version 2
run General-0-20210611-21:03:11-16920
attr configname General
attr datetime 20210611-21:03:11
attr experiment General
attr inifile loRaNetworkTest.ini
attr iterationvars "$0=\"avg\""
attr iterationvarsf avg-
attr measurement "$0=\"avg\""
attr network LoRaNetworkTest
attr processid 16920
attr repetition 0
attr replication #0
attr resultdir results
attr runnumber 0
attr seedset 0
param **.numberOfGateways 1
param **.loRaGW[0].numUdpApps 1
param **.loRaGW[0].packetForwarder.localPort 2000
param **.loRaGW[0].packetForwarder.destPort 1000
param **.loRaGW[0].packetForwarder.destAddresses "\"networkServer\""
param **.loRaGW[0].packetForwarder.indexNumber 0
param **.loRaGW[1].numUdpApps 1
param **.loRaGW[1].packetForwarder.localPort 2000
param **.loRaGW[1].packetForwarder.destPort 1000
param **.loRaGW[1].packetForwarder.destAddresses "\"networkServer\""
param **.loRaGW[1].packetForwarder.indexNumber 1
param **.networkServer.numUdpApps 1
param **.networkServer.**.evaluateADRinServer false
param **.networkServer.udpApp[0].typename "\"NetworkServerApp\""
param **.networkServer.udpApp[0].destAddresses "\"loRaGW[0]\""
param **.networkServer.udpApp[0].destPort 2000
param **.networkServer.udpApp[0].localPort 1000
param **.networkServer.udpApp[0].adrMethod "\"avg\""
param **.numberOfNodes 30
param **.numberOfPacketsToSend 0
param **.timeToFirstPacket exponential(100s)
param **.timeToNextPacket exponential(100s)
param **.alohaChannelModel false
param **.loRaNodes[*].**.initFromDisplayString false
param **.loRaNodes[*].**.evaluateADRinNode false
param **.loRaNodes[*].**initialLoRaSF 7
param **.loRaNodes[*].**initialLoRaBW "250 kHz"
param **.loRaNodes[*].**initialLoRaCR 4
param **.loRaNodes[*].**initialLoRaTP "14 dBm"
param **.loRaNodes[*].**.initialX "uniform(0m, 480m)"
param **.loRaNodes[*].**.initialY "uniform(0m, 480m)"
param **.LoRaGWNic.radio.iAmGateway true
param **.loRaGW[*].**.initFromDisplayString false
param **.loRaGW[0].**.initialX 240m
param **.loRaGW[0].**.initialY 240m
param **.loRaNodes[*].LoRaNic.radio.energyConsumerType "\"LoRaEnergyConsumer\""
param **.loRaNodes[*].**.energySourceModule "\"IdealEpEnergyStorage\""
param **.loRaNodes[*].LoRaNic.radio.energyConsumer.configFile "xmldoc(\"energyConsumptionParameters.xml\")"
param **.sigma 0
param **.constraintAreaMinX 0m
param **.constraintAreaMinY 0m
param **.constraintAreaMinZ 0m
param **.constraintAreaMaxX 480m
param **.constraintAreaMaxY 480m
param **.constraintAreaMaxZ 0m
param LoRaNetworkTest.**.radio.separateTransmissionParts false
param LoRaNetworkTest.**.radio.separateReceptionParts false
param **.delayer.config "xmldoc(\"cloudDelays.xml\")"
param **.radio.radioMediumModule "\"LoRaMedium\""
param **.LoRaMedium.pathLossType "\"LoRaLogNormalShadowing\""
param **.minInterferenceTime 0s
param **.displayAddresses false

scalar LoRaNetworkTest.loRaNodes[0].LoRaNic.mac numRetry 0
scalar LoRaNetworkTest.loRaNodes[0].LoRaNic.mac numSentWithoutRetry 0
scalar LoRaNetworkTest.loRaNodes[0].LoRaNic.mac numGivenUp 0
scalar LoRaNetworkTest.loRaNodes[0].LoRaNic.mac numSent 1901
scalar LoRaNetworkTest.loRaNodes[0].LoRaNic.mac numReceived 0
scalar LoRaNetworkTest.loRaNodes[0].LoRaNic.mac numSentBroadcast 0
scalar LoRaNetworkTest.loRaNodes[0].LoRaNic.mac numReceivedBroadcast 0
scalar LoRaNetworkTest.loRaNodes[0].LoRaNic.radio.transmitter LoRaTransmissionCreated:count 1069
attr source LoRaTransmissionCreated
scalar LoRaNetworkTest.loRaNodes[0].LoRaNic.radio.receiver numCollisions 0
scalar LoRaNetworkTest.loRaNodes[0].LoRaNic.radio.receiver rcvBelowSensitivity 784
scalar LoRaNetworkTest.loRaNodes[0].LoRaNic.radio.receiver LoRaReceptionCollision:count 0
attr source LoRaReceptionCollision
scalar LoRaNetworkTest.loRaNodes[0].LoRaNic.radio.energyConsumer totalEnergyConsumed 132.49892553133
statistic LoRaNetworkTest.loRaNodes[0].LoRaNic.radio symbolErrorRate:histogram
field count 0
field mean nan
field stddev nan
field min nan
field max nan
field sum 0
field sqrsum 0
attr source symbolErrorRate
attr title "Symbol error rate, histogram"
bin	-inf	0
bin	-0.5	0
bin	-0.46666666666667	0
bin	-0.43333333333333	0
bin	-0.4	0
bin	-0.36666666666667	0
bin	-0.33333333333333	0
bin	-0.3	0
bin	-0.26666666666667	0
bin	-0.23333333333333	0
bin	-0.2	0
bin	-0.16666666666667	0
bin	-0.13333333333333	0
bin	-0.1	0
bin	-0.066666666666667	0
bin	-0.033333333333333	0
bin	-6.9388939039072e-018	0
bin	0.033333333333333	0
bin	0.066666666666667	0
bin	0.1	0
bin	0.13333333333333	0
bin	0.16666666666667	0
bin	0.2	0
bin	0.23333333333333	0
bin	0.26666666666667	0
bin	0.3	0
bin	0.33333333333333	0
bin	0.36666666666667	0
bin	0.4	0
bin	0.43333333333333	0
bin	0.46666666666667	0
bin	0.5	0
statistic LoRaNetworkTest.loRaNodes[0].LoRaNic.radio bitErrorRate:histogram
field count 0
field mean nan
field stddev nan
field min nan
field max nan
field sum 0
field sqrsum 0
attr source bitErrorRate
attr title "Bit error rate, histogram"
bin	-inf	0
bin	-0.5	0
bin	-0.46666666666667	0
bin	-0.43333333333333	0
bin	-0.4	0
bin	-0.36666666666667	0
bin	-0.33333333333333	0
bin	-0.3	0
bin	-0.26666666666667	0
bin	-0.23333333333333	0
bin	-0.2	0
bin	-0.16666666666667	0
bin	-0.13333333333333	0
bin	-0.1	0
bin	-0.066666666666667	0
bin	-0.033333333333333	0
bin	-6.9388939039072e-018	0
bin	0.033333333333333	0
bin	0.066666666666667	0
bin	0.1	0
bin	0.13333333333333	0
bin	0.16666666666667	0
bin	0.2	0
bin	0.23333333333333	0
bin	0.26666666666667	0
bin	0.3	0
bin	0.33333333333333	0
bin	0.36666666666667	0
bin	0.4	0
bin	0.43333333333333	0
bin	0.46666666666667	0
bin	0.5	0
statistic LoRaNetworkTest.loRaNodes[0].LoRaNic.radio packetErrorRate:histogram
field count 0
field mean nan
field stddev nan
field min nan
field max nan
field sum 0
field sqrsum 0
attr source packetErrorRate
attr title "Packet error rate, histogram"
bin	-inf	0
bin	-0.5	0
bin	-0.46666666666667	0
bin	-0.43333333333333	0
bin	-0.4	0
bin	-0.36666666666667	0
bin	-0.33333333333333	0
bin	-0.3	0
bin	-0.26666666666667	0
bin	-0.23333333333333	0
bin	-0.2	0
bin	-0.16666666666667	0
bin	-0.13333333333333	0
bin	-0.1	0
bin	-0.066666666666667	0
bin	-0.033333333333333	0
bin	-6.9388939039072e-018	0
bin	0.033333333333333	0
bin	0.066666666666667	0
bin	0.1	0
bin	0.13333333333333	0
bin	0.16666666666667	0
bin	0.2	0
bin	0.23333333333333	0
bin	0.26666666666667	0
bin	0.3	0
bin	0.33333333333333	0
bin	0.36666666666667	0
bin	0.4	0
bin	0.43333333333333	0
bin	0.46666666666667	0
bin	0.5	0
statistic LoRaNetworkTest.loRaNodes[0].LoRaNic.radio minSNIR:histogram
field count 122
field mean 2.1708202183045
field stddev 1.8302668121485
field min 1.1515369375159
field max 5.9286195327625
field sum 264.84006663314
field sqrsum 980.25524030627
attr source minSNIR
attr title "Min SNIR, histogram"
bin	-inf	0
bin	-1.2370043601074	0
bin	-0.91853218709092	0
bin	-0.60006001407449	0
bin	-0.28158784105805	0
bin	0.036884331958391	0
bin	0.35535650497483	0
bin	0.67382867799127	0
bin	0.99230085100771	83
bin	1.3107730240241	0
bin	1.6292451970406	15
bin	1.947717370057	0
bin	2.2661895430735	0
bin	2.5846617160899	1
bin	2.9031338891063	0
bin	3.2216060621228	0
bin	3.5400782351392	0
bin	3.8585504081557	0
bin	4.1770225811721	0
bin	4.4954947541885	0
bin	4.813966927205	0
bin	5.1324391002214	0
bin	5.4509112732378	0
bin	5.7693834462543	23
bin	6.0878556192707	0
bin	6.4063277922872	0
bin	6.7247999653036	0
bin	7.04327213832	0
bin	7.3617443113365	0
bin	7.6802164843529	0
bin	7.9986886573694	0
bin	8.3171608303858	0
scalar LoRaNetworkTest.loRaNodes[0].LoRaNic.radio transmissionState:count 4276
attr interpolationmode sample-hold
attr source transmissionStateChanged
attr title "Radio transmission state, count"
scalar LoRaNetworkTest.loRaNodes[0].LoRaNic.radio receptionState:count 6472
attr interpolationmode sample-hold
attr source receptionStateChanged
attr title "Radio reception state, count"
scalar LoRaNetworkTest.loRaNodes[0].LoRaNic.radio radioMode:count 7939
attr interpolationmode sample-hold
attr source radioModeChanged
attr title "Radio mode, count"
scalar LoRaNetworkTest.loRaNodes[0].SimpleLoRaApp positionX 263.43048110604
scalar LoRaNetworkTest.loRaNodes[0].SimpleLoRaApp positionY 284.56541586667
scalar LoRaNetworkTest.loRaNodes[0].SimpleLoRaApp finalTP 14
scalar LoRaNetworkTest.loRaNodes[0].SimpleLoRaApp finalSF 7
scalar LoRaNetworkTest.loRaNodes[0].SimpleLoRaApp sentPackets 1069
scalar LoRaNetworkTest.loRaNodes[0].SimpleLoRaApp receivedADRCommands 0
scalar LoRaNetworkTest.loRaNodes[0].SimpleLoRaApp LoRa_AppPacketSent:count 1069
attr source LoRa_AppPacketSent
scalar LoRaNetworkTest.loRaNodes[1].LoRaNic.mac numRetry 0
scalar LoRaNetworkTest.loRaNodes[1].LoRaNic.mac numSentWithoutRetry 0
scalar LoRaNetworkTest.loRaNodes[1].LoRaNic.mac numGivenUp 0
scalar LoRaNetworkTest.loRaNodes[1].LoRaNic.mac numSent 1876
scalar LoRaNetworkTest.loRaNodes[1].LoRaNic.mac numReceived 0
scalar LoRaNetworkTest.loRaNodes[1].LoRaNic.mac numSentBroadcast 0
scalar LoRaNetworkTest.loRaNodes[1].LoRaNic.mac numReceivedBroadcast 0
scalar LoRaNetworkTest.loRaNodes[1].LoRaNic.radio.transmitter LoRaTransmissionCreated:count 1048
attr source LoRaTransmissionCreated
scalar LoRaNetworkTest.loRaNodes[1].LoRaNic.radio.receiver numCollisions 0
scalar LoRaNetworkTest.loRaNodes[1].LoRaNic.radio.receiver rcvBelowSensitivity 822
scalar LoRaNetworkTest.loRaNodes[1].LoRaNic.radio.receiver LoRaReceptionCollision:count 0
attr source LoRaReceptionCollision
scalar LoRaNetworkTest.loRaNodes[1].LoRaNic.radio.energyConsumer totalEnergyConsumed 130.75778421004
statistic LoRaNetworkTest.loRaNodes[1].LoRaNic.radio symbolErrorRate:histogram
field count 0
field mean nan
field stddev nan
field min nan
field max nan
field sum 0
field sqrsum 0
attr source symbolErrorRate
attr title "Symbol error rate, histogram"
bin	-inf	0
bin	-0.5	0
bin	-0.46666666666667	0
bin	-0.43333333333333	0
bin	-0.4	0
bin	-0.36666666666667	0
bin	-0.33333333333333	0
bin	-0.3	0
bin	-0.26666666666667	0
bin	-0.23333333333333	0
bin	-0.2	0
bin	-0.16666666666667	0
bin	-0.13333333333333	0
bin	-0.1	0
bin	-0.066666666666667	0
bin	-0.033333333333333	0
bin	-6.9388939039072e-018	0
bin	0.033333333333333	0
bin	0.066666666666667	0
bin	0.1	0
bin	0.13333333333333	0
bin	0.16666666666667	0
bin	0.2	0
bin	0.23333333333333	0
bin	0.26666666666667	0
bin	0.3	0
bin	0.33333333333333	0
bin	0.36666666666667	0
bin	0.4	0
bin	0.43333333333333	0
bin	0.46666666666667	0
bin	0.5	0
statistic LoRaNetworkTest.loRaNodes[1].LoRaNic.radio bitErrorRate:histogram
field count 0
field mean nan
field stddev nan
field min nan
field max nan
field sum 0
field sqrsum 0
attr source bitErrorRate
attr title "Bit error rate, histogram"
bin	-inf	0
bin	-0.5	0
bin	-0.46666666666667	0
bin	-0.43333333333333	0
bin	-0.4	0
bin	-0.36666666666667	0
bin	-0.33333333333333	0
bin	-0.3	0
bin	-0.26666666666667	0
bin	-0.23333333333333	0
bin	-0.2	0
bin	-0.16666666666667	0
bin	-0.13333333333333	0
bin	-0.1	0
bin	-0.066666666666667	0
bin	-0.033333333333333	0
bin	-6.9388939039072e-018	0
bin	0.033333333333333	0
bin	0.066666666666667	0
bin	0.1	0
bin	0.13333333333333	0
bin	0.16666666666667	0
bin	0.2	0
bin	0.23333333333333	0
bin	0.26666666666667	0
bin	0.3	0
bin	0.33333333333333	0
bin	0.36666666666667	0
bin	0.4	0
bin	0.43333333333333	0
bin	0.46666666666667	0
bin	0.5	0
statistic LoRaNetworkTest.loRaNodes[1].LoRaNic.radio packetErrorRate:histogram
field count 0
field mean nan
field stddev nan
field min nan
field max nan
field sum 0
field sqrsum 0
attr source packetErrorRate
attr title "Packet error rate, histogram"
bin	-inf	0
bin	-0.5	0
bin	-0.46666666666667	0
bin	-0.43333333333333	0
bin	-0.4	0
bin	-0.36666666666667	0
bin	-0.33333333333333	0
bin	-0.3	0
bin	-0.26666666666667	0
bin	-0.23333333333333	0
bin	-0.2	0
bin	-0.16666666666667	0
bin	-0.13333333333333	0
bin	-0.1	0
bin	-0.066666666666667	0
bin	-0.033333333333333	0
bin	-6.9388939039072e-018	0
bin	0.033333333333333	0
bin	0.066666666666667	0
bin	0.1	0
bin	0.13333333333333	0
bin	0.16666666666667	0
bin	0.2	0
bin	0.23333333333333	0
bin	0.26666666666667	0
bin	0.3	0
bin	0.33333333333333	0
bin	0.36666666666667	0
bin	0.4	0
bin	0.43333333333333	0
bin	0.46666666666667	0
bin	0.5	0
statistic LoRaNetworkTest.loRaNodes[1].LoRaNic.radio minSNIR:histogram
field count 90
field mean 2.9900870518025
field stddev 2.6444256959514
field min 1.1317416443911
field max 7.75878340209
field sum 269.10783466222
field sqrsum 1427.0317182274
attr source minSNIR
attr title "Min SNIR, histogram"
bin	-inf	0
bin	-2.1817792344583	0
bin	-1.7399764506117	0
bin	-1.2981736667651	0
bin	-0.85637088291853	0
bin	-0.41456809907194	0
bin	0.027234684774656	0
bin	0.46903746862125	0
bin	0.91084025246784	13
bin	1.3526430363144	42
bin	1.794445820161	0
bin	2.2362486040076	14
bin	2.6780513878542	0
bin	3.1198541717008	0
bin	3.5616569555474	0
bin	4.003459739394	0
bin	4.4452625232406	0
bin	4.8870653070872	0
bin	5.3288680909338	0
bin	5.7706708747804	0
bin	6.212473658627	1
bin	6.6542764424736	0
bin	7.0960792263202	0
bin	7.5378820101667	20
bin	7.9796847940133	0
bin	8.4214875778599	0
bin	8.8632903617065	0
bin	9.3050931455531	0
bin	9.7468959293997	0
bin	10.188698713246	0
bin	10.630501497093	0
bin	11.07230428094	0
scalar LoRaNetworkTest.loRaNodes[1].LoRaNic.radio transmissionState:count 4192
attr interpolationmode sample-hold
attr source transmissionStateChanged
attr title "Radio transmission state, count"
scalar LoRaNetworkTest.loRaNodes[1].LoRaNic.radio receptionState:count 6428
attr interpolationmode sample-hold
attr source receptionStateChanged
attr title "Radio reception state, count"
scalar LoRaNetworkTest.loRaNodes[1].LoRaNic.radio radioMode:count 7875
attr interpolationmode sample-hold
attr source radioModeChanged
attr title "Radio mode, count"
scalar LoRaNetworkTest.loRaNodes[1].SimpleLoRaApp positionX 405.24755716324
scalar LoRaNetworkTest.loRaNodes[1].SimpleLoRaApp positionY 289.32641778141
scalar LoRaNetworkTest.loRaNodes[1].SimpleLoRaApp finalTP 14
scalar LoRaNetworkTest.loRaNodes[1].SimpleLoRaApp finalSF 7
scalar LoRaNetworkTest.loRaNodes[1].SimpleLoRaApp sentPackets 1048
scalar LoRaNetworkTest.loRaNodes[1].SimpleLoRaApp receivedADRCommands 0
scalar LoRaNetworkTest.loRaNodes[1].SimpleLoRaApp LoRa_AppPacketSent:count 1048
attr source LoRa_AppPacketSent
scalar LoRaNetworkTest.loRaNodes[2].LoRaNic.mac numRetry 0
scalar LoRaNetworkTest.loRaNodes[2].LoRaNic.mac numSentWithoutRetry 0
scalar LoRaNetworkTest.loRaNodes[2].LoRaNic.mac numGivenUp 0
scalar LoRaNetworkTest.loRaNodes[2].LoRaNic.mac numSent 1814
scalar LoRaNetworkTest.loRaNodes[2].LoRaNic.mac numReceived 0
scalar LoRaNetworkTest.loRaNodes[2].LoRaNic.mac numSentBroadcast 0
scalar LoRaNetworkTest.loRaNodes[2].LoRaNic.mac numReceivedBroadcast 0
scalar LoRaNetworkTest.loRaNodes[2].LoRaNic.radio.transmitter LoRaTransmissionCreated:count 1000
attr source LoRaTransmissionCreated
scalar LoRaNetworkTest.loRaNodes[2].LoRaNic.radio.receiver numCollisions 0
scalar LoRaNetworkTest.loRaNodes[2].LoRaNic.radio.receiver rcvBelowSensitivity 854
scalar LoRaNetworkTest.loRaNodes[2].LoRaNic.radio.receiver LoRaReceptionCollision:count 0
attr source LoRaReceptionCollision
scalar LoRaNetworkTest.loRaNodes[2].LoRaNic.radio.energyConsumer totalEnergyConsumed 126.38860993289
statistic LoRaNetworkTest.loRaNodes[2].LoRaNic.radio symbolErrorRate:histogram
field count 0
field mean nan
field stddev nan
field min nan
field max nan
field sum 0
field sqrsum 0
attr source symbolErrorRate
attr title "Symbol error rate, histogram"
bin	-inf	0
bin	-0.5	0
bin	-0.46666666666667	0
bin	-0.43333333333333	0
bin	-0.4	0
bin	-0.36666666666667	0
bin	-0.33333333333333	0
bin	-0.3	0
bin	-0.26666666666667	0
bin	-0.23333333333333	0
bin	-0.2	0
bin	-0.16666666666667	0
bin	-0.13333333333333	0
bin	-0.1	0
bin	-0.066666666666667	0
bin	-0.033333333333333	0
bin	-6.9388939039072e-018	0
bin	0.033333333333333	0
bin	0.066666666666667	0
bin	0.1	0
bin	0.13333333333333	0
bin	0.16666666666667	0
bin	0.2	0
bin	0.23333333333333	0
bin	0.26666666666667	0
bin	0.3	0
bin	0.33333333333333	0
bin	0.36666666666667	0
bin	0.4	0
bin	0.43333333333333	0
bin	0.46666666666667	0
bin	0.5	0
statistic LoRaNetworkTest.loRaNodes[2].LoRaNic.radio bitErrorRate:histogram
field count 0
field mean nan
field stddev nan
field min nan
field max nan
field sum 0
field sqrsum 0
attr source bitErrorRate
attr title "Bit error rate, histogram"
bin	-inf	0
bin	-0.5	0
bin	-0.46666666666667	0
bin	-0.43333333333333	0
bin	-0.4	0
bin	-0.36666666666667	0
bin	-0.33333333333333	0
bin	-0.3	0
bin	-0.26666666666667	0
bin	-0.23333333333333	0
bin	-0.2	0
bin	-0.16666666666667	0
bin	-0.13333333333333	0
bin	-0.1	0
bin	-0.066666666666667	0
bin	-0.033333333333333	0
bin	-6.9388939039072e-018	0
bin	0.033333333333333	0
bin	0.066666666666667	0
bin	0.1	0
bin	0.13333333333333	0
bin	0.16666666666667	0
bin	0.2	0
bin	0.23333333333333	0
bin	0.26666666666667	0
bin	0.3	0
bin	0.33333333333333	0
bin	0.36666666666667	0
bin	0.4	0
bin	0.43333333333333	0
bin	0.46666666666667	0
bin	0.5	0
statistic LoRaNetworkTest.loRaNodes[2].LoRaNic.radio packetErrorRate:histogram
field count 0
field mean nan
field stddev nan
field min nan
field max nan
field sum 0
field sqrsum 0
attr source packetErrorRate
attr title "Packet error rate, histogram"
bin	-inf	0
bin	-0.5	0
bin	-0.46666666666667	0
bin	-0.43333333333333	0
bin	-0.4	0
bin	-0.36666666666667	0
bin	-0.33333333333333	0
bin	-0.3	0
bin	-0.26666666666667	0
bin	-0.23333333333333	0
bin	-0.2	0
bin	-0.16666666666667	0
bin	-0.13333333333333	0
bin	-0.1	0
bin	-0.066666666666667	0
bin	-0.033333333333333	0
bin	-6.9388939039072e-018	0
bin	0.033333333333333	0
bin	0.066666666666667	0
bin	0.1	0
bin	0.13333333333333	0
bin	0.16666666666667	0
bin	0.2	0
bin	0.23333333333333	0
bin	0.26666666666667	0
bin	0.3	0
bin	0.33333333333333	0
bin	0.36666666666667	0
bin	0.4	0
bin	0.43333333333333	0
bin	0.46666666666667	0
bin	0.5	0
statistic LoRaNetworkTest.loRaNodes[2].LoRaNic.radio minSNIR:histogram
field count 53
field mean 4.380573748652
field stddev 4.1206812104904
field min 1.3686069473303
field max 10.071640212837
field sum 232.17040867856
field sqrsum 1900.0003066725
attr source minSNIR
attr title "Min SNIR, histogram"
bin	-inf	0
bin	-2.9829096854231	0
bin	-2.4027074677226	0
bin	-1.8225052500222	0
bin	-1.2423030323217	0
bin	-0.66210081462127	0
bin	-0.081898596920819	0
bin	0.49830362077963	0
bin	1.0785058384801	35
bin	1.6587080561805	0
bin	2.238910273881	0
bin	2.8191124915814	0
bin	3.3993147092819	0
bin	3.9795169269823	0
bin	4.5597191446828	0
bin	5.1399213623832	0
bin	5.7201235800837	0
bin	6.3003257977841	0
bin	6.8805280154846	0
bin	7.460730233185	0
bin	8.0409324508855	0
bin	8.6211346685859	0
bin	9.2013368862864	0
bin	9.7815391039868	18
bin	10.361741321687	0
bin	10.941943539388	0
bin	11.522145757088	0
bin	12.102347974789	0
bin	12.682550192489	0
bin	13.262752410189	0
bin	13.84295462789	0
bin	14.42315684559	0
scalar LoRaNetworkTest.loRaNodes[2].LoRaNic.radio transmissionState:count 4000
attr interpolationmode sample-hold
attr source transmissionStateChanged
attr title "Radio transmission state, count"
scalar LoRaNetworkTest.loRaNodes[2].LoRaNic.radio receptionState:count 6149
attr interpolationmode sample-hold
attr source receptionStateChanged
attr title "Radio reception state, count"
scalar LoRaNetworkTest.loRaNodes[2].LoRaNic.radio radioMode:count 7558
attr interpolationmode sample-hold
attr source radioModeChanged
attr title "Radio mode, count"
scalar LoRaNetworkTest.loRaNodes[2].SimpleLoRaApp positionX 261.54392514378
scalar LoRaNetworkTest.loRaNodes[2].SimpleLoRaApp positionY 406.68083388358
scalar LoRaNetworkTest.loRaNodes[2].SimpleLoRaApp finalTP 14
scalar LoRaNetworkTest.loRaNodes[2].SimpleLoRaApp finalSF 7
scalar LoRaNetworkTest.loRaNodes[2].SimpleLoRaApp sentPackets 1000
scalar LoRaNetworkTest.loRaNodes[2].SimpleLoRaApp receivedADRCommands 0
scalar LoRaNetworkTest.loRaNodes[2].SimpleLoRaApp LoRa_AppPacketSent:count 1000
attr source LoRa_AppPacketSent
scalar LoRaNetworkTest.loRaNodes[3].LoRaNic.mac numRetry 0
scalar LoRaNetworkTest.loRaNodes[3].LoRaNic.mac numSentWithoutRetry 0
scalar LoRaNetworkTest.loRaNodes[3].LoRaNic.mac numGivenUp 0
scalar LoRaNetworkTest.loRaNodes[3].LoRaNic.mac numSent 1840
scalar LoRaNetworkTest.loRaNodes[3].LoRaNic.mac numReceived 0
scalar LoRaNetworkTest.loRaNodes[3].LoRaNic.mac numSentBroadcast 0
scalar LoRaNetworkTest.loRaNodes[3].LoRaNic.mac numReceivedBroadcast 0
scalar LoRaNetworkTest.loRaNodes[3].LoRaNic.radio.transmitter LoRaTransmissionCreated:count 1016
attr source LoRaTransmissionCreated
scalar LoRaNetworkTest.loRaNodes[3].LoRaNic.radio.receiver numCollisions 0
scalar LoRaNetworkTest.loRaNodes[3].LoRaNic.radio.receiver rcvBelowSensitivity 785
scalar LoRaNetworkTest.loRaNodes[3].LoRaNic.radio.receiver LoRaReceptionCollision:count 0
attr source LoRaReceptionCollision
scalar LoRaNetworkTest.loRaNodes[3].LoRaNic.radio.energyConsumer totalEnergyConsumed 128.25413309569
statistic LoRaNetworkTest.loRaNodes[3].LoRaNic.radio symbolErrorRate:histogram
field count 0
field mean nan
field stddev nan
field min nan
field max nan
field sum 0
field sqrsum 0
attr source symbolErrorRate
attr title "Symbol error rate, histogram"
bin	-inf	0
bin	-0.5	0
bin	-0.46666666666667	0
bin	-0.43333333333333	0
bin	-0.4	0
bin	-0.36666666666667	0
bin	-0.33333333333333	0
bin	-0.3	0
bin	-0.26666666666667	0
bin	-0.23333333333333	0
bin	-0.2	0
bin	-0.16666666666667	0
bin	-0.13333333333333	0
bin	-0.1	0
bin	-0.066666666666667	0
bin	-0.033333333333333	0
bin	-6.9388939039072e-018	0
bin	0.033333333333333	0
bin	0.066666666666667	0
bin	0.1	0
bin	0.13333333333333	0
bin	0.16666666666667	0
bin	0.2	0
bin	0.23333333333333	0
bin	0.26666666666667	0
bin	0.3	0
bin	0.33333333333333	0
bin	0.36666666666667	0
bin	0.4	0
bin	0.43333333333333	0
bin	0.46666666666667	0
bin	0.5	0
statistic LoRaNetworkTest.loRaNodes[3].LoRaNic.radio bitErrorRate:histogram
field count 0
field mean nan
field stddev nan
field min nan
field max nan
field sum 0
field sqrsum 0
attr source bitErrorRate
attr title "Bit error rate, histogram"
bin	-inf	0
bin	-0.5	0
bin	-0.46666666666667	0
bin	-0.43333333333333	0
bin	-0.4	0
bin	-0.36666666666667	0
bin	-0.33333333333333	0
bin	-0.3	0
bin	-0.26666666666667	0
bin	-0.23333333333333	0
bin	-0.2	0
bin	-0.16666666666667	0
bin	-0.13333333333333	0
bin	-0.1	0
bin	-0.066666666666667	0
bin	-0.033333333333333	0
bin	-6.9388939039072e-018	0
bin	0.033333333333333	0
bin	0.066666666666667	0
bin	0.1	0
bin	0.13333333333333	0
bin	0.16666666666667	0
bin	0.2	0
bin	0.23333333333333	0
bin	0.26666666666667	0
bin	0.3	0
bin	0.33333333333333	0
bin	0.36666666666667	0
bin	0.4	0
bin	0.43333333333333	0
bin	0.46666666666667	0
bin	0.5	0
statistic LoRaNetworkTest.loRaNodes[3].LoRaNic.radio packetErrorRate:histogram
field count 0
field mean nan
field stddev nan
field min nan
field max nan
field sum 0
field sqrsum 0
attr source packetErrorRate
attr title "Packet error rate, histogram"
bin	-inf	0
bin	-0.5	0
bin	-0.46666666666667	0
bin	-0.43333333333333	0
bin	-0.4	0
bin	-0.36666666666667	0
bin	-0.33333333333333	0
bin	-0.3	0
bin	-0.26666666666667	0
bin	-0.23333333333333	0
bin	-0.2	0
bin	-0.16666666666667	0
bin	-0.13333333333333	0
bin	-0.1	0
bin	-0.066666666666667	0
bin	-0.033333333333333	0
bin	-6.9388939039072e-018	0
bin	0.033333333333333	0
bin	0.066666666666667	0
bin	0.1	0
bin	0.13333333333333	0
bin	0.16666666666667	0
bin	0.2	0
bin	0.23333333333333	0
bin	0.26666666666667	0
bin	0.3	0
bin	0.33333333333333	0
bin	0.36666666666667	0
bin	0.4	0
bin	0.43333333333333	0
bin	0.46666666666667	0
bin	0.5	0
statistic LoRaNetworkTest.loRaNodes[3].LoRaNic.radio minSNIR:histogram
field count 57
field mean 2.6158557276722
field stddev 2.1010967405272
field min 1.066239023939
field max 5.9286195327625
field sum 149.10377647731
field sqrsum 637.25198844677
attr source minSNIR
attr title "Min SNIR, histogram"
bin	-inf	0
bin	-1.3649512304727	0
bin	-1.0407925298845	0
bin	-0.71663382929623	0
bin	-0.392475128708	0
bin	-0.068316428119765	0
bin	0.25584227246847	0
bin	0.5800009730567	0
bin	0.90415967364493	24
bin	1.2283183742332	0
bin	1.5524770748214	17
bin	1.8766357754096	0
bin	2.2007944759979	0
bin	2.5249531765861	0
bin	2.8491118771743	0
bin	3.1732705777625	0
bin	3.4974292783508	0
bin	3.821587978939	0
bin	4.1457466795272	0
bin	4.4699053801155	0
bin	4.7940640807037	0
bin	5.1182227812919	0
bin	5.4423814818802	0
bin	5.7665401824684	16
bin	6.0906988830566	0
bin	6.4148575836449	0
bin	6.7390162842331	0
bin	7.0631749848213	0
bin	7.3873336854095	0
bin	7.7114923859978	0
bin	8.035651086586	0
bin	8.3598097871742	0
scalar LoRaNetworkTest.loRaNodes[3].LoRaNic.radio transmissionState:count 4064
attr interpolationmode sample-hold
attr source transmissionStateChanged
attr title "Radio transmission state, count"
scalar LoRaNetworkTest.loRaNodes[3].LoRaNic.radio receptionState:count 5986
attr interpolationmode sample-hold
attr source receptionStateChanged
attr title "Radio reception state, count"
scalar LoRaNetworkTest.loRaNodes[3].LoRaNic.radio radioMode:count 7481
attr interpolationmode sample-hold
attr source radioModeChanged
attr title "Radio mode, count"
scalar LoRaNetworkTest.loRaNodes[3].SimpleLoRaApp positionX 299.31057427078
scalar LoRaNetworkTest.loRaNodes[3].SimpleLoRaApp positionY 310.02917524427
scalar LoRaNetworkTest.loRaNodes[3].SimpleLoRaApp finalTP 14
scalar LoRaNetworkTest.loRaNodes[3].SimpleLoRaApp finalSF 7
scalar LoRaNetworkTest.loRaNodes[3].SimpleLoRaApp sentPackets 1016
scalar LoRaNetworkTest.loRaNodes[3].SimpleLoRaApp receivedADRCommands 0
scalar LoRaNetworkTest.loRaNodes[3].SimpleLoRaApp LoRa_AppPacketSent:count 1016
attr source LoRa_AppPacketSent
scalar LoRaNetworkTest.loRaNodes[4].LoRaNic.mac numRetry 0
scalar LoRaNetworkTest.loRaNodes[4].LoRaNic.mac numSentWithoutRetry 0
scalar LoRaNetworkTest.loRaNodes[4].LoRaNic.mac numGivenUp 0
scalar LoRaNetworkTest.loRaNodes[4].LoRaNic.mac numSent 1862
scalar LoRaNetworkTest.loRaNodes[4].LoRaNic.mac numReceived 0
scalar LoRaNetworkTest.loRaNodes[4].LoRaNic.mac numSentBroadcast 0
scalar LoRaNetworkTest.loRaNodes[4].LoRaNic.mac numReceivedBroadcast 0
scalar LoRaNetworkTest.loRaNodes[4].LoRaNic.radio.transmitter LoRaTransmissionCreated:count 1029
attr source LoRaTransmissionCreated
scalar LoRaNetworkTest.loRaNodes[4].LoRaNic.radio.receiver numCollisions 0
scalar LoRaNetworkTest.loRaNodes[4].LoRaNic.radio.receiver rcvBelowSensitivity 826
scalar LoRaNetworkTest.loRaNodes[4].LoRaNic.radio.receiver LoRaReceptionCollision:count 0
attr source LoRaReceptionCollision
scalar LoRaNetworkTest.loRaNodes[4].LoRaNic.radio.energyConsumer totalEnergyConsumed 129.79274881711
statistic LoRaNetworkTest.loRaNodes[4].LoRaNic.radio symbolErrorRate:histogram
field count 0
field mean nan
field stddev nan
field min nan
field max nan
field sum 0
field sqrsum 0
attr source symbolErrorRate
attr title "Symbol error rate, histogram"
bin	-inf	0
bin	-0.5	0
bin	-0.46666666666667	0
bin	-0.43333333333333	0
bin	-0.4	0
bin	-0.36666666666667	0
bin	-0.33333333333333	0
bin	-0.3	0
bin	-0.26666666666667	0
bin	-0.23333333333333	0
bin	-0.2	0
bin	-0.16666666666667	0
bin	-0.13333333333333	0
bin	-0.1	0
bin	-0.066666666666667	0
bin	-0.033333333333333	0
bin	-6.9388939039072e-018	0
bin	0.033333333333333	0
bin	0.066666666666667	0
bin	0.1	0
bin	0.13333333333333	0
bin	0.16666666666667	0
bin	0.2	0
bin	0.23333333333333	0
bin	0.26666666666667	0
bin	0.3	0
bin	0.33333333333333	0
bin	0.36666666666667	0
bin	0.4	0
bin	0.43333333333333	0
bin	0.46666666666667	0
bin	0.5	0
statistic LoRaNetworkTest.loRaNodes[4].LoRaNic.radio bitErrorRate:histogram
field count 0
field mean nan
field stddev nan
field min nan
field max nan
field sum 0
field sqrsum 0
attr source bitErrorRate
attr title "Bit error rate, histogram"
bin	-inf	0
bin	-0.5	0
bin	-0.46666666666667	0
bin	-0.43333333333333	0
bin	-0.4	0
bin	-0.36666666666667	0
bin	-0.33333333333333	0
bin	-0.3	0
bin	-0.26666666666667	0
bin	-0.23333333333333	0
bin	-0.2	0
bin	-0.16666666666667	0
bin	-0.13333333333333	0
bin	-0.1	0
bin	-0.066666666666667	0
bin	-0.033333333333333	0
bin	-6.9388939039072e-018	0
bin	0.033333333333333	0
bin	0.066666666666667	0
bin	0.1	0
bin	0.13333333333333	0
bin	0.16666666666667	0
bin	0.2	0
bin	0.23333333333333	0
bin	0.26666666666667	0
bin	0.3	0
bin	0.33333333333333	0
bin	0.36666666666667	0
bin	0.4	0
bin	0.43333333333333	0
bin	0.46666666666667	0
bin	0.5	0
statistic LoRaNetworkTest.loRaNodes[4].LoRaNic.radio packetErrorRate:histogram
field count 0
field mean nan
field stddev nan
field min nan
field max nan
field sum 0
field sqrsum 0
attr source packetErrorRate
attr title "Packet error rate, histogram"
bin	-inf	0
bin	-0.5	0
bin	-0.46666666666667	0
bin	-0.43333333333333	0
bin	-0.4	0
bin	-0.36666666666667	0
bin	-0.33333333333333	0
bin	-0.3	0
bin	-0.26666666666667	0
bin	-0.23333333333333	0
bin	-0.2	0
bin	-0.16666666666667	0
bin	-0.13333333333333	0
bin	-0.1	0
bin	-0.066666666666667	0
bin	-0.033333333333333	0
bin	-6.9388939039072e-018	0
bin	0.033333333333333	0
bin	0.066666666666667	0
bin	0.1	0
bin	0.13333333333333	0
bin	0.16666666666667	0
bin	0.2	0
bin	0.23333333333333	0
bin	0.26666666666667	0
bin	0.3	0
bin	0.33333333333333	0
bin	0.36666666666667	0
bin	0.4	0
bin	0.43333333333333	0
bin	0.46666666666667	0
bin	0.5	0
statistic LoRaNetworkTest.loRaNodes[4].LoRaNic.radio minSNIR:histogram
field count 101
field mean 1.2660749738545
field stddev 0.25129287487159
field min 1.0439128154368
field max 1.8244845920213
field sum 127.87357235931
field sqrsum 168.21234067762
attr source minSNIR
attr title "Min SNIR, histogram"
bin	-inf	0
bin	0.65362692714454	0
bin	0.7056650455835	0
bin	0.75770316402247	0
bin	0.80974128246144	0
bin	0.86177940090041	0
bin	0.91381751933937	0
bin	0.96585563777834	0
bin	1.0178937562173	15
bin	1.0699318746563	35
bin	1.1219699930952	0
bin	1.1740081115342	0
bin	1.2260462299732	0
bin	1.2780843484121	37
bin	1.3301224668511	0
bin	1.3821605852901	0
bin	1.4341987037291	0
bin	1.486236822168	0
bin	1.538274940607	0
bin	1.590313059046	0
bin	1.6423511774849	0
bin	1.6943892959239	0
bin	1.7464274143629	0
bin	1.7984655328018	14
bin	1.8505036512408	0
bin	1.9025417696798	0
bin	1.9545798881187	0
bin	2.0066180065577	0
bin	2.0586561249967	0
bin	2.1106942434356	0
bin	2.1627323618746	0
bin	2.2147704803136	0
scalar LoRaNetworkTest.loRaNodes[4].LoRaNic.radio transmissionState:count 4116
attr interpolationmode sample-hold
attr source transmissionStateChanged
attr title "Radio transmission state, count"
scalar LoRaNetworkTest.loRaNodes[4].LoRaNic.radio receptionState:count 6340
attr interpolationmode sample-hold
attr source receptionStateChanged
attr title "Radio reception state, count"
scalar LoRaNetworkTest.loRaNodes[4].LoRaNic.radio radioMode:count 7741
attr interpolationmode sample-hold
attr source radioModeChanged
attr title "Radio mode, count"
scalar LoRaNetworkTest.loRaNodes[4].SimpleLoRaApp positionX 210.04186078906
scalar LoRaNetworkTest.loRaNodes[4].SimpleLoRaApp positionY 142.81661052257
scalar LoRaNetworkTest.loRaNodes[4].SimpleLoRaApp finalTP 14
scalar LoRaNetworkTest.loRaNodes[4].SimpleLoRaApp finalSF 7
scalar LoRaNetworkTest.loRaNodes[4].SimpleLoRaApp sentPackets 1029
scalar LoRaNetworkTest.loRaNodes[4].SimpleLoRaApp receivedADRCommands 0
scalar LoRaNetworkTest.loRaNodes[4].SimpleLoRaApp LoRa_AppPacketSent:count 1029
attr source LoRa_AppPacketSent
scalar LoRaNetworkTest.loRaNodes[5].LoRaNic.mac numRetry 0
scalar LoRaNetworkTest.loRaNodes[5].LoRaNic.mac numSentWithoutRetry 0
scalar LoRaNetworkTest.loRaNodes[5].LoRaNic.mac numGivenUp 0
scalar LoRaNetworkTest.loRaNodes[5].LoRaNic.mac numSent 1844
scalar LoRaNetworkTest.loRaNodes[5].LoRaNic.mac numReceived 0
scalar LoRaNetworkTest.loRaNodes[5].LoRaNic.mac numSentBroadcast 0
scalar LoRaNetworkTest.loRaNodes[5].LoRaNic.mac numReceivedBroadcast 0
scalar LoRaNetworkTest.loRaNodes[5].LoRaNic.radio.transmitter LoRaTransmissionCreated:count 1093
attr source LoRaTransmissionCreated
scalar LoRaNetworkTest.loRaNodes[5].LoRaNic.radio.receiver numCollisions 0
scalar LoRaNetworkTest.loRaNodes[5].LoRaNic.radio.receiver rcvBelowSensitivity 976
scalar LoRaNetworkTest.loRaNodes[5].LoRaNic.radio.receiver LoRaReceptionCollision:count 0
attr source LoRaReceptionCollision
scalar LoRaNetworkTest.loRaNodes[5].LoRaNic.radio.energyConsumer totalEnergyConsumed 128.52726835522
statistic LoRaNetworkTest.loRaNodes[5].LoRaNic.radio symbolErrorRate:histogram
field count 0
field mean nan
field stddev nan
field min nan
field max nan
field sum 0
field sqrsum 0
attr source symbolErrorRate
attr title "Symbol error rate, histogram"
bin	-inf	0
bin	-0.5	0
bin	-0.46666666666667	0
bin	-0.43333333333333	0
bin	-0.4	0
bin	-0.36666666666667	0
bin	-0.33333333333333	0
bin	-0.3	0
bin	-0.26666666666667	0
bin	-0.23333333333333	0
bin	-0.2	0
bin	-0.16666666666667	0
bin	-0.13333333333333	0
bin	-0.1	0
bin	-0.066666666666667	0
bin	-0.033333333333333	0
bin	-6.9388939039072e-018	0
bin	0.033333333333333	0
bin	0.066666666666667	0
bin	0.1	0
bin	0.13333333333333	0
bin	0.16666666666667	0
bin	0.2	0
bin	0.23333333333333	0
bin	0.26666666666667	0
bin	0.3	0
bin	0.33333333333333	0
bin	0.36666666666667	0
bin	0.4	0
bin	0.43333333333333	0
bin	0.46666666666667	0
bin	0.5	0
statistic LoRaNetworkTest.loRaNodes[5].LoRaNic.radio bitErrorRate:histogram
field count 0
field mean nan
field stddev nan
field min nan
field max nan
field sum 0
field sqrsum 0
attr source bitErrorRate
attr title "Bit error rate, histogram"
bin	-inf	0
bin	-0.5	0
bin	-0.46666666666667	0
bin	-0.43333333333333	0
bin	-0.4	0
bin	-0.36666666666667	0
bin	-0.33333333333333	0
bin	-0.3	0
bin	-0.26666666666667	0
bin	-0.23333333333333	0
bin	-0.2	0
bin	-0.16666666666667	0
bin	-0.13333333333333	0
bin	-0.1	0
bin	-0.066666666666667	0
bin	-0.033333333333333	0
bin	-6.9388939039072e-018	0
bin	0.033333333333333	0
bin	0.066666666666667	0
bin	0.1	0
bin	0.13333333333333	0
bin	0.16666666666667	0
bin	0.2	0
bin	0.23333333333333	0
bin	0.26666666666667	0
bin	0.3	0
bin	0.33333333333333	0
bin	0.36666666666667	0
bin	0.4	0
bin	0.43333333333333	0
bin	0.46666666666667	0
bin	0.5	0
statistic LoRaNetworkTest.loRaNodes[5].LoRaNic.radio packetErrorRate:histogram
field count 0
field mean nan
field stddev nan
field min nan
field max nan
field sum 0
field sqrsum 0
attr source packetErrorRate
attr title "Packet error rate, histogram"
bin	-inf	0
bin	-0.5	0
bin	-0.46666666666667	0
bin	-0.43333333333333	0
bin	-0.4	0
bin	-0.36666666666667	0
bin	-0.33333333333333	0
bin	-0.3	0
bin	-0.26666666666667	0
bin	-0.23333333333333	0
bin	-0.2	0
bin	-0.16666666666667	0
bin	-0.13333333333333	0
bin	-0.1	0
bin	-0.066666666666667	0
bin	-0.033333333333333	0
bin	-6.9388939039072e-018	0
bin	0.033333333333333	0
bin	0.066666666666667	0
bin	0.1	0
bin	0.13333333333333	0
bin	0.16666666666667	0
bin	0.2	0
bin	0.23333333333333	0
bin	0.26666666666667	0
bin	0.3	0
bin	0.33333333333333	0
bin	0.36666666666667	0
bin	0.4	0
bin	0.43333333333333	0
bin	0.46666666666667	0
bin	0.5	0
statistic LoRaNetworkTest.loRaNodes[5].LoRaNic.radio minSNIR:histogram
field count 0
field mean nan
field stddev nan
field min nan
field max nan
field sum 0
field sqrsum 0
attr source minSNIR
attr title "Min SNIR, histogram"
bin	-inf	0
bin	-0.5	0
bin	-0.46666666666667	0
bin	-0.43333333333333	0
bin	-0.4	0
bin	-0.36666666666667	0
bin	-0.33333333333333	0
bin	-0.3	0
bin	-0.26666666666667	0
bin	-0.23333333333333	0
bin	-0.2	0
bin	-0.16666666666667	0
bin	-0.13333333333333	0
bin	-0.1	0
bin	-0.066666666666667	0
bin	-0.033333333333333	0
bin	-6.9388939039072e-018	0
bin	0.033333333333333	0
bin	0.066666666666667	0
bin	0.1	0
bin	0.13333333333333	0
bin	0.16666666666667	0
bin	0.2	0
bin	0.23333333333333	0
bin	0.26666666666667	0
bin	0.3	0
bin	0.33333333333333	0
bin	0.36666666666667	0
bin	0.4	0
bin	0.43333333333333	0
bin	0.46666666666667	0
bin	0.5	0
scalar LoRaNetworkTest.loRaNodes[5].LoRaNic.radio transmissionState:count 4372
attr interpolationmode sample-hold
attr source transmissionStateChanged
attr title "Radio transmission state, count"
scalar LoRaNetworkTest.loRaNodes[5].LoRaNic.radio receptionState:count 6584
attr interpolationmode sample-hold
attr source receptionStateChanged
attr title "Radio reception state, count"
scalar LoRaNetworkTest.loRaNodes[5].LoRaNic.radio radioMode:count 8217
attr interpolationmode sample-hold
attr source radioModeChanged
attr title "Radio mode, count"
scalar LoRaNetworkTest.loRaNodes[5].SimpleLoRaApp positionX 27.222228348255
scalar LoRaNetworkTest.loRaNodes[5].SimpleLoRaApp positionY 462.55812674761
scalar LoRaNetworkTest.loRaNodes[5].SimpleLoRaApp finalTP 14
scalar LoRaNetworkTest.loRaNodes[5].SimpleLoRaApp finalSF 7
scalar LoRaNetworkTest.loRaNodes[5].SimpleLoRaApp sentPackets 1093
scalar LoRaNetworkTest.loRaNodes[5].SimpleLoRaApp receivedADRCommands 0
scalar LoRaNetworkTest.loRaNodes[5].SimpleLoRaApp LoRa_AppPacketSent:count 1093
attr source LoRa_AppPacketSent
scalar LoRaNetworkTest.loRaNodes[6].LoRaNic.mac numRetry 0
scalar LoRaNetworkTest.loRaNodes[6].LoRaNic.mac numSentWithoutRetry 0
scalar LoRaNetworkTest.loRaNodes[6].LoRaNic.mac numGivenUp 0
scalar LoRaNetworkTest.loRaNodes[6].LoRaNic.mac numSent 1776
scalar LoRaNetworkTest.loRaNodes[6].LoRaNic.mac numReceived 0
scalar LoRaNetworkTest.loRaNodes[6].LoRaNic.mac numSentBroadcast 0
scalar LoRaNetworkTest.loRaNodes[6].LoRaNic.mac numReceivedBroadcast 0
scalar LoRaNetworkTest.loRaNodes[6].LoRaNic.radio.transmitter LoRaTransmissionCreated:count 1013
attr source LoRaTransmissionCreated
scalar LoRaNetworkTest.loRaNodes[6].LoRaNic.radio.receiver numCollisions 0
scalar LoRaNetworkTest.loRaNodes[6].LoRaNic.radio.receiver rcvBelowSensitivity 812
scalar LoRaNetworkTest.loRaNodes[6].LoRaNic.radio.receiver LoRaReceptionCollision:count 0
attr source LoRaReceptionCollision
scalar LoRaNetworkTest.loRaNodes[6].LoRaNic.radio.energyConsumer totalEnergyConsumed 123.78618121345
statistic LoRaNetworkTest.loRaNodes[6].LoRaNic.radio symbolErrorRate:histogram
field count 0
field mean nan
field stddev nan
field min nan
field max nan
field sum 0
field sqrsum 0
attr source symbolErrorRate
attr title "Symbol error rate, histogram"
bin	-inf	0
bin	-0.5	0
bin	-0.46666666666667	0
bin	-0.43333333333333	0
bin	-0.4	0
bin	-0.36666666666667	0
bin	-0.33333333333333	0
bin	-0.3	0
bin	-0.26666666666667	0
bin	-0.23333333333333	0
bin	-0.2	0
bin	-0.16666666666667	0
bin	-0.13333333333333	0
bin	-0.1	0
bin	-0.066666666666667	0
bin	-0.033333333333333	0
bin	-6.9388939039072e-018	0
bin	0.033333333333333	0
bin	0.066666666666667	0
bin	0.1	0
bin	0.13333333333333	0
bin	0.16666666666667	0
bin	0.2	0
bin	0.23333333333333	0
bin	0.26666666666667	0
bin	0.3	0
bin	0.33333333333333	0
bin	0.36666666666667	0
bin	0.4	0
bin	0.43333333333333	0
bin	0.46666666666667	0
bin	0.5	0
statistic LoRaNetworkTest.loRaNodes[6].LoRaNic.radio bitErrorRate:histogram
field count 0
field mean nan
field stddev nan
field min nan
field max nan
field sum 0
field sqrsum 0
attr source bitErrorRate
attr title "Bit error rate, histogram"
bin	-inf	0
bin	-0.5	0
bin	-0.46666666666667	0
bin	-0.43333333333333	0
bin	-0.4	0
bin	-0.36666666666667	0
bin	-0.33333333333333	0
bin	-0.3	0
bin	-0.26666666666667	0
bin	-0.23333333333333	0
bin	-0.2	0
bin	-0.16666666666667	0
bin	-0.13333333333333	0
bin	-0.1	0
bin	-0.066666666666667	0
bin	-0.033333333333333	0
bin	-6.9388939039072e-018	0
bin	0.033333333333333	0
bin	0.066666666666667	0
bin	0.1	0
bin	0.13333333333333	0
bin	0.16666666666667	0
bin	0.2	0
bin	0.23333333333333	0
bin	0.26666666666667	0
bin	0.3	0
bin	0.33333333333333	0
bin	0.36666666666667	0
bin	0.4	0
bin	0.43333333333333	0
bin	0.46666666666667	0
bin	0.5	0
statistic LoRaNetworkTest.loRaNodes[6].LoRaNic.radio packetErrorRate:histogram
field count 0
field mean nan
field stddev nan
field min nan
field max nan
field sum 0
field sqrsum 0
attr source packetErrorRate
attr title "Packet error rate, histogram"
bin	-inf	0
bin	-0.5	0
bin	-0.46666666666667	0
bin	-0.43333333333333	0
bin	-0.4	0
bin	-0.36666666666667	0
bin	-0.33333333333333	0
bin	-0.3	0
bin	-0.26666666666667	0
bin	-0.23333333333333	0
bin	-0.2	0
bin	-0.16666666666667	0
bin	-0.13333333333333	0
bin	-0.1	0
bin	-0.066666666666667	0
bin	-0.033333333333333	0
bin	-6.9388939039072e-018	0
bin	0.033333333333333	0
bin	0.066666666666667	0
bin	0.1	0
bin	0.13333333333333	0
bin	0.16666666666667	0
bin	0.2	0
bin	0.23333333333333	0
bin	0.26666666666667	0
bin	0.3	0
bin	0.33333333333333	0
bin	0.36666666666667	0
bin	0.4	0
bin	0.43333333333333	0
bin	0.46666666666667	0
bin	0.5	0
statistic LoRaNetworkTest.loRaNodes[6].LoRaNic.radio minSNIR:histogram
field count 72
field mean 1.445803847395
field stddev 0.38869051887112
field min 1.1321433935074
field max 2.070070087306
field sum 104.09787701244
field sqrsum 161.23181377192
attr source minSNIR
attr title "Min SNIR, histogram"
bin	-inf	0
bin	0.66318004660815	0
bin	0.72570849286139	0
bin	0.78823693911463	0
bin	0.85076538536787	0
bin	0.91329383162111	0
bin	0.97582227787435	0
bin	1.0383507241276	0
bin	1.1008791703808	33
bin	1.1634076166341	0
bin	1.2259360628873	0
bin	1.2884645091405	19
bin	1.3509929553938	0
bin	1.413521401647	0
bin	1.4760498479003	0
bin	1.5385782941535	0
bin	1.6011067404067	0
bin	1.66363518666	1
bin	1.7261636329132	0
bin	1.7886920791665	0
bin	1.8512205254197	0
bin	1.9137489716729	0
bin	1.9762774179262	0
bin	2.0388058641794	19
bin	2.1013343104327	0
bin	2.1638627566859	0
bin	2.2263912029391	0
bin	2.2889196491924	0
bin	2.3514480954456	0
bin	2.4139765416988	0
bin	2.4765049879521	0
bin	2.5390334342053	0
scalar LoRaNetworkTest.loRaNodes[6].LoRaNic.radio transmissionState:count 4052
attr interpolationmode sample-hold
attr source transmissionStateChanged
attr title "Radio transmission state, count"
scalar LoRaNetworkTest.loRaNodes[6].LoRaNic.radio receptionState:count 6096
attr interpolationmode sample-hold
attr source receptionStateChanged
attr title "Radio reception state, count"
scalar LoRaNetworkTest.loRaNodes[6].LoRaNic.radio radioMode:count 7539
attr interpolationmode sample-hold
attr source radioModeChanged
attr title "Radio mode, count"
scalar LoRaNetworkTest.loRaNodes[6].SimpleLoRaApp positionX 184.05193023384
scalar LoRaNetworkTest.loRaNodes[6].SimpleLoRaApp positionY 229.27925359458
scalar LoRaNetworkTest.loRaNodes[6].SimpleLoRaApp finalTP 14
scalar LoRaNetworkTest.loRaNodes[6].SimpleLoRaApp finalSF 7
scalar LoRaNetworkTest.loRaNodes[6].SimpleLoRaApp sentPackets 1013
scalar LoRaNetworkTest.loRaNodes[6].SimpleLoRaApp receivedADRCommands 0
scalar LoRaNetworkTest.loRaNodes[6].SimpleLoRaApp LoRa_AppPacketSent:count 1013
attr source LoRa_AppPacketSent
scalar LoRaNetworkTest.loRaNodes[7].LoRaNic.mac numRetry 0
scalar LoRaNetworkTest.loRaNodes[7].LoRaNic.mac numSentWithoutRetry 0
scalar LoRaNetworkTest.loRaNodes[7].LoRaNic.mac numGivenUp 0
scalar LoRaNetworkTest.loRaNodes[7].LoRaNic.mac numSent 1834
scalar LoRaNetworkTest.loRaNodes[7].LoRaNic.mac numReceived 0
scalar LoRaNetworkTest.loRaNodes[7].LoRaNic.mac numSentBroadcast 0
scalar LoRaNetworkTest.loRaNodes[7].LoRaNic.mac numReceivedBroadcast 0
scalar LoRaNetworkTest.loRaNodes[7].LoRaNic.radio.transmitter LoRaTransmissionCreated:count 1039
attr source LoRaTransmissionCreated
scalar LoRaNetworkTest.loRaNodes[7].LoRaNic.radio.receiver numCollisions 0
scalar LoRaNetworkTest.loRaNodes[7].LoRaNic.radio.receiver rcvBelowSensitivity 846
scalar LoRaNetworkTest.loRaNodes[7].LoRaNic.radio.receiver LoRaReceptionCollision:count 0
attr source LoRaReceptionCollision
scalar LoRaNetworkTest.loRaNodes[7].LoRaNic.radio.energyConsumer totalEnergyConsumed 127.82964574513
statistic LoRaNetworkTest.loRaNodes[7].LoRaNic.radio symbolErrorRate:histogram
field count 0
field mean nan
field stddev nan
field min nan
field max nan
field sum 0
field sqrsum 0
attr source symbolErrorRate
attr title "Symbol error rate, histogram"
bin	-inf	0
bin	-0.5	0
bin	-0.46666666666667	0
bin	-0.43333333333333	0
bin	-0.4	0
bin	-0.36666666666667	0
bin	-0.33333333333333	0
bin	-0.3	0
bin	-0.26666666666667	0
bin	-0.23333333333333	0
bin	-0.2	0
bin	-0.16666666666667	0
bin	-0.13333333333333	0
bin	-0.1	0
bin	-0.066666666666667	0
bin	-0.033333333333333	0
bin	-6.9388939039072e-018	0
bin	0.033333333333333	0
bin	0.066666666666667	0
bin	0.1	0
bin	0.13333333333333	0
bin	0.16666666666667	0
bin	0.2	0
bin	0.23333333333333	0
bin	0.26666666666667	0
bin	0.3	0
bin	0.33333333333333	0
bin	0.36666666666667	0
bin	0.4	0
bin	0.43333333333333	0
bin	0.46666666666667	0
bin	0.5	0
statistic LoRaNetworkTest.loRaNodes[7].LoRaNic.radio bitErrorRate:histogram
field count 0
field mean nan
field stddev nan
field min nan
field max nan
field sum 0
field sqrsum 0
attr source bitErrorRate
attr title "Bit error rate, histogram"
bin	-inf	0
bin	-0.5	0
bin	-0.46666666666667	0
bin	-0.43333333333333	0
bin	-0.4	0
bin	-0.36666666666667	0
bin	-0.33333333333333	0
bin	-0.3	0
bin	-0.26666666666667	0
bin	-0.23333333333333	0
bin	-0.2	0
bin	-0.16666666666667	0
bin	-0.13333333333333	0
bin	-0.1	0
bin	-0.066666666666667	0
bin	-0.033333333333333	0
bin	-6.9388939039072e-018	0
bin	0.033333333333333	0
bin	0.066666666666667	0
bin	0.1	0
bin	0.13333333333333	0
bin	0.16666666666667	0
bin	0.2	0
bin	0.23333333333333	0
bin	0.26666666666667	0
bin	0.3	0
bin	0.33333333333333	0
bin	0.36666666666667	0
bin	0.4	0
bin	0.43333333333333	0
bin	0.46666666666667	0
bin	0.5	0
statistic LoRaNetworkTest.loRaNodes[7].LoRaNic.radio packetErrorRate:histogram
field count 0
field mean nan
field stddev nan
field min nan
field max nan
field sum 0
field sqrsum 0
attr source packetErrorRate
attr title "Packet error rate, histogram"
bin	-inf	0
bin	-0.5	0
bin	-0.46666666666667	0
bin	-0.43333333333333	0
bin	-0.4	0
bin	-0.36666666666667	0
bin	-0.33333333333333	0
bin	-0.3	0
bin	-0.26666666666667	0
bin	-0.23333333333333	0
bin	-0.2	0
bin	-0.16666666666667	0
bin	-0.13333333333333	0
bin	-0.1	0
bin	-0.066666666666667	0
bin	-0.033333333333333	0
bin	-6.9388939039072e-018	0
bin	0.033333333333333	0
bin	0.066666666666667	0
bin	0.1	0
bin	0.13333333333333	0
bin	0.16666666666667	0
bin	0.2	0
bin	0.23333333333333	0
bin	0.26666666666667	0
bin	0.3	0
bin	0.33333333333333	0
bin	0.36666666666667	0
bin	0.4	0
bin	0.43333333333333	0
bin	0.46666666666667	0
bin	0.5	0
statistic LoRaNetworkTest.loRaNodes[7].LoRaNic.radio minSNIR:histogram
field count 59
field mean 3.2880614145463
field stddev 2.5170636717882
field min 1.0630674553161
field max 7.75878340209
field sum 193.99562345823
field sqrsum 1005.3348766984
attr source minSNIR
attr title "Min SNIR, histogram"
bin	-inf	0
bin	-2.2847905180708	0
bin	-1.8384094549526	0
bin	-1.3920283918343	0
bin	-0.94564732871603	0
bin	-0.49926626559777	0
bin	-0.052885202479512	0
bin	0.39349586063875	0
bin	0.83987692375701	22
bin	1.2862579868753	0
bin	1.7326390499935	13
bin	2.1790201131118	0
bin	2.6254011762301	0
bin	3.0717822393483	0
bin	3.5181633024666	0
bin	3.9645443655848	0
bin	4.4109254287031	13
bin	4.8573064918214	0
bin	5.3036875549396	0
bin	5.7500686180579	0
bin	6.1964496811761	0
bin	6.6428307442944	0
bin	7.0892118074127	0
bin	7.5355928705309	11
bin	7.9819739336492	0
bin	8.4283549967674	0
bin	8.8747360598857	0
bin	9.321117123004	0
bin	9.7674981861222	0
bin	10.21387924924	0
bin	10.660260312359	0
bin	11.106641375477	0
scalar LoRaNetworkTest.loRaNodes[7].LoRaNic.radio transmissionState:count 4156
attr interpolationmode sample-hold
attr source transmissionStateChanged
attr title "Radio transmission state, count"
scalar LoRaNetworkTest.loRaNodes[7].LoRaNic.radio receptionState:count 6280
attr interpolationmode sample-hold
attr source receptionStateChanged
attr title "Radio reception state, count"
scalar LoRaNetworkTest.loRaNodes[7].LoRaNic.radio radioMode:count 7768
attr interpolationmode sample-hold
attr source radioModeChanged
attr title "Radio mode, count"
scalar LoRaNetworkTest.loRaNodes[7].SimpleLoRaApp positionX 389.84098870307
scalar LoRaNetworkTest.loRaNodes[7].SimpleLoRaApp positionY 253.86956233531
scalar LoRaNetworkTest.loRaNodes[7].SimpleLoRaApp finalTP 14
scalar LoRaNetworkTest.loRaNodes[7].SimpleLoRaApp finalSF 7
scalar LoRaNetworkTest.loRaNodes[7].SimpleLoRaApp sentPackets 1039
scalar LoRaNetworkTest.loRaNodes[7].SimpleLoRaApp receivedADRCommands 0
scalar LoRaNetworkTest.loRaNodes[7].SimpleLoRaApp LoRa_AppPacketSent:count 1039
attr source LoRa_AppPacketSent
scalar LoRaNetworkTest.loRaNodes[8].LoRaNic.mac numRetry 0
scalar LoRaNetworkTest.loRaNodes[8].LoRaNic.mac numSentWithoutRetry 0
scalar LoRaNetworkTest.loRaNodes[8].LoRaNic.mac numGivenUp 0
scalar LoRaNetworkTest.loRaNodes[8].LoRaNic.mac numSent 1757
scalar LoRaNetworkTest.loRaNodes[8].LoRaNic.mac numReceived 0
scalar LoRaNetworkTest.loRaNodes[8].LoRaNic.mac numSentBroadcast 0
scalar LoRaNetworkTest.loRaNodes[8].LoRaNic.mac numReceivedBroadcast 0
scalar LoRaNetworkTest.loRaNodes[8].LoRaNic.radio.transmitter LoRaTransmissionCreated:count 986
attr source LoRaTransmissionCreated
scalar LoRaNetworkTest.loRaNodes[8].LoRaNic.radio.receiver numCollisions 0
scalar LoRaNetworkTest.loRaNodes[8].LoRaNic.radio.receiver rcvBelowSensitivity 729
scalar LoRaNetworkTest.loRaNodes[8].LoRaNic.radio.receiver LoRaReceptionCollision:count 0
attr source LoRaReceptionCollision
scalar LoRaNetworkTest.loRaNodes[8].LoRaNic.radio.energyConsumer totalEnergyConsumed 122.46582269335
statistic LoRaNetworkTest.loRaNodes[8].LoRaNic.radio symbolErrorRate:histogram
field count 0
field mean nan
field stddev nan
field min nan
field max nan
field sum 0
field sqrsum 0
attr source symbolErrorRate
attr title "Symbol error rate, histogram"
bin	-inf	0
bin	-0.5	0
bin	-0.46666666666667	0
bin	-0.43333333333333	0
bin	-0.4	0
bin	-0.36666666666667	0
bin	-0.33333333333333	0
bin	-0.3	0
bin	-0.26666666666667	0
bin	-0.23333333333333	0
bin	-0.2	0
bin	-0.16666666666667	0
bin	-0.13333333333333	0
bin	-0.1	0
bin	-0.066666666666667	0
bin	-0.033333333333333	0
bin	-6.9388939039072e-018	0
bin	0.033333333333333	0
bin	0.066666666666667	0
bin	0.1	0
bin	0.13333333333333	0
bin	0.16666666666667	0
bin	0.2	0
bin	0.23333333333333	0
bin	0.26666666666667	0
bin	0.3	0
bin	0.33333333333333	0
bin	0.36666666666667	0
bin	0.4	0
bin	0.43333333333333	0
bin	0.46666666666667	0
bin	0.5	0
statistic LoRaNetworkTest.loRaNodes[8].LoRaNic.radio bitErrorRate:histogram
field count 0
field mean nan
field stddev nan
field min nan
field max nan
field sum 0
field sqrsum 0
attr source bitErrorRate
attr title "Bit error rate, histogram"
bin	-inf	0
bin	-0.5	0
bin	-0.46666666666667	0
bin	-0.43333333333333	0
bin	-0.4	0
bin	-0.36666666666667	0
bin	-0.33333333333333	0
bin	-0.3	0
bin	-0.26666666666667	0
bin	-0.23333333333333	0
bin	-0.2	0
bin	-0.16666666666667	0
bin	-0.13333333333333	0
bin	-0.1	0
bin	-0.066666666666667	0
bin	-0.033333333333333	0
bin	-6.9388939039072e-018	0
bin	0.033333333333333	0
bin	0.066666666666667	0
bin	0.1	0
bin	0.13333333333333	0
bin	0.16666666666667	0
bin	0.2	0
bin	0.23333333333333	0
bin	0.26666666666667	0
bin	0.3	0
bin	0.33333333333333	0
bin	0.36666666666667	0
bin	0.4	0
bin	0.43333333333333	0
bin	0.46666666666667	0
bin	0.5	0
statistic LoRaNetworkTest.loRaNodes[8].LoRaNic.radio packetErrorRate:histogram
field count 0
field mean nan
field stddev nan
field min nan
field max nan
field sum 0
field sqrsum 0
attr source packetErrorRate
attr title "Packet error rate, histogram"
bin	-inf	0
bin	-0.5	0
bin	-0.46666666666667	0
bin	-0.43333333333333	0
bin	-0.4	0
bin	-0.36666666666667	0
bin	-0.33333333333333	0
bin	-0.3	0
bin	-0.26666666666667	0
bin	-0.23333333333333	0
bin	-0.2	0
bin	-0.16666666666667	0
bin	-0.13333333333333	0
bin	-0.1	0
bin	-0.066666666666667	0
bin	-0.033333333333333	0
bin	-6.9388939039072e-018	0
bin	0.033333333333333	0
bin	0.066666666666667	0
bin	0.1	0
bin	0.13333333333333	0
bin	0.16666666666667	0
bin	0.2	0
bin	0.23333333333333	0
bin	0.26666666666667	0
bin	0.3	0
bin	0.33333333333333	0
bin	0.36666666666667	0
bin	0.4	0
bin	0.43333333333333	0
bin	0.46666666666667	0
bin	0.5	0
statistic LoRaNetworkTest.loRaNodes[8].LoRaNic.radio minSNIR:histogram
field count 130
field mean 2.6998730842064
field stddev 3.4429766401313
field min 1.1321433935074
field max 12.879910004344
field sum 350.98350094683
field sqrsum 2476.788277846
attr source minSNIR
attr title "Min SNIR, histogram"
bin	-inf	0
bin	-4.7417399119107	0
bin	-3.9585554711883	0
bin	-3.1753710304659	0
bin	-2.3921865897435	0
bin	-1.609002149021	0
bin	-0.82581770829862	0
bin	-0.042633267576193	0
bin	0.74055117314623	61
bin	1.5237356138687	45
bin	2.3069200545911	11
bin	3.0901044953135	0
bin	3.8732889360359	0
bin	4.6564733767584	0
bin	5.4396578174808	0
bin	6.2228422582032	0
bin	7.0060266989256	0
bin	7.7892111396481	0
bin	8.5723955803705	0
bin	9.3555800210929	0
bin	10.138764461815	0
bin	10.921948902538	0
bin	11.70513334326	0
bin	12.488317783983	13
bin	13.271502224705	0
bin	14.054686665427	0
bin	14.83787110615	0
bin	15.621055546872	0
bin	16.404239987595	0
bin	17.187424428317	0
bin	17.97060886904	0
bin	18.753793309762	0
scalar LoRaNetworkTest.loRaNodes[8].LoRaNic.radio transmissionState:count 3944
attr interpolationmode sample-hold
attr source transmissionStateChanged
attr title "Radio transmission state, count"
scalar LoRaNetworkTest.loRaNodes[8].LoRaNic.radio receptionState:count 6148
attr interpolationmode sample-hold
attr source receptionStateChanged
attr title "Radio reception state, count"
scalar LoRaNetworkTest.loRaNodes[8].LoRaNic.radio radioMode:count 7439
attr interpolationmode sample-hold
attr source radioModeChanged
attr title "Radio mode, count"
scalar LoRaNetworkTest.loRaNodes[8].SimpleLoRaApp positionX 272.66139060259
scalar LoRaNetworkTest.loRaNodes[8].SimpleLoRaApp positionY 188.5367007181
scalar LoRaNetworkTest.loRaNodes[8].SimpleLoRaApp finalTP 14
scalar LoRaNetworkTest.loRaNodes[8].SimpleLoRaApp finalSF 7
scalar LoRaNetworkTest.loRaNodes[8].SimpleLoRaApp sentPackets 986
scalar LoRaNetworkTest.loRaNodes[8].SimpleLoRaApp receivedADRCommands 0
scalar LoRaNetworkTest.loRaNodes[8].SimpleLoRaApp LoRa_AppPacketSent:count 986
attr source LoRa_AppPacketSent
scalar LoRaNetworkTest.loRaNodes[9].LoRaNic.mac numRetry 0
scalar LoRaNetworkTest.loRaNodes[9].LoRaNic.mac numSentWithoutRetry 0
scalar LoRaNetworkTest.loRaNodes[9].LoRaNic.mac numGivenUp 0
scalar LoRaNetworkTest.loRaNodes[9].LoRaNic.mac numSent 1865
scalar LoRaNetworkTest.loRaNodes[9].LoRaNic.mac numReceived 0
scalar LoRaNetworkTest.loRaNodes[9].LoRaNic.mac numSentBroadcast 0
scalar LoRaNetworkTest.loRaNodes[9].LoRaNic.mac numReceivedBroadcast 0
scalar LoRaNetworkTest.loRaNodes[9].LoRaNic.radio.transmitter LoRaTransmissionCreated:count 1072
attr source LoRaTransmissionCreated
scalar LoRaNetworkTest.loRaNodes[9].LoRaNic.radio.receiver numCollisions 0
scalar LoRaNetworkTest.loRaNodes[9].LoRaNic.radio.receiver rcvBelowSensitivity 893
scalar LoRaNetworkTest.loRaNodes[9].LoRaNic.radio.receiver LoRaReceptionCollision:count 0
attr source LoRaReceptionCollision
scalar LoRaNetworkTest.loRaNodes[9].LoRaNic.radio.energyConsumer totalEnergyConsumed 129.98842827991
statistic LoRaNetworkTest.loRaNodes[9].LoRaNic.radio symbolErrorRate:histogram
field count 0
field mean nan
field stddev nan
field min nan
field max nan
field sum 0
field sqrsum 0
attr source symbolErrorRate
attr title "Symbol error rate, histogram"
bin	-inf	0
bin	-0.5	0
bin	-0.46666666666667	0
bin	-0.43333333333333	0
bin	-0.4	0
bin	-0.36666666666667	0
bin	-0.33333333333333	0
bin	-0.3	0
bin	-0.26666666666667	0
bin	-0.23333333333333	0
bin	-0.2	0
bin	-0.16666666666667	0
bin	-0.13333333333333	0
bin	-0.1	0
bin	-0.066666666666667	0
bin	-0.033333333333333	0
bin	-6.9388939039072e-018	0
bin	0.033333333333333	0
bin	0.066666666666667	0
bin	0.1	0
bin	0.13333333333333	0
bin	0.16666666666667	0
bin	0.2	0
bin	0.23333333333333	0
bin	0.26666666666667	0
bin	0.3	0
bin	0.33333333333333	0
bin	0.36666666666667	0
bin	0.4	0
bin	0.43333333333333	0
bin	0.46666666666667	0
bin	0.5	0
statistic LoRaNetworkTest.loRaNodes[9].LoRaNic.radio bitErrorRate:histogram
field count 0
field mean nan
field stddev nan
field min nan
field max nan
field sum 0
field sqrsum 0
attr source bitErrorRate
attr title "Bit error rate, histogram"
bin	-inf	0
bin	-0.5	0
bin	-0.46666666666667	0
bin	-0.43333333333333	0
bin	-0.4	0
bin	-0.36666666666667	0
bin	-0.33333333333333	0
bin	-0.3	0
bin	-0.26666666666667	0
bin	-0.23333333333333	0
bin	-0.2	0
bin	-0.16666666666667	0
bin	-0.13333333333333	0
bin	-0.1	0
bin	-0.066666666666667	0
bin	-0.033333333333333	0
bin	-6.9388939039072e-018	0
bin	0.033333333333333	0
bin	0.066666666666667	0
bin	0.1	0
bin	0.13333333333333	0
bin	0.16666666666667	0
bin	0.2	0
bin	0.23333333333333	0
bin	0.26666666666667	0
bin	0.3	0
bin	0.33333333333333	0
bin	0.36666666666667	0
bin	0.4	0
bin	0.43333333333333	0
bin	0.46666666666667	0
bin	0.5	0
statistic LoRaNetworkTest.loRaNodes[9].LoRaNic.radio packetErrorRate:histogram
field count 0
field mean nan
field stddev nan
field min nan
field max nan
field sum 0
field sqrsum 0
attr source packetErrorRate
attr title "Packet error rate, histogram"
bin	-inf	0
bin	-0.5	0
bin	-0.46666666666667	0
bin	-0.43333333333333	0
bin	-0.4	0
bin	-0.36666666666667	0
bin	-0.33333333333333	0
bin	-0.3	0
bin	-0.26666666666667	0
bin	-0.23333333333333	0
bin	-0.2	0
bin	-0.16666666666667	0
bin	-0.13333333333333	0
bin	-0.1	0
bin	-0.066666666666667	0
bin	-0.033333333333333	0
bin	-6.9388939039072e-018	0
bin	0.033333333333333	0
bin	0.066666666666667	0
bin	0.1	0
bin	0.13333333333333	0
bin	0.16666666666667	0
bin	0.2	0
bin	0.23333333333333	0
bin	0.26666666666667	0
bin	0.3	0
bin	0.33333333333333	0
bin	0.36666666666667	0
bin	0.4	0
bin	0.43333333333333	0
bin	0.46666666666667	0
bin	0.5	0
statistic LoRaNetworkTest.loRaNodes[9].LoRaNic.radio minSNIR:histogram
field count 41
field mean 4.1254824990503
field stddev 1.8689146319485
field min 2.4099735356547
field max 6.1118612987715
field sum 169.14478246106
field sqrsum 837.51751590923
attr source minSNIR
attr title "Min SNIR, histogram"
bin	-inf	0
bin	0.55902965409635	0
bin	0.80582217163746	0
bin	1.0526146891786	0
bin	1.2994072067197	0
bin	1.5461997242608	0
bin	1.7929922418019	0
bin	2.0397847593431	0
bin	2.2865772768842	22
bin	2.5333697944253	0
bin	2.7801623119664	0
bin	3.0269548295075	0
bin	3.2737473470486	0
bin	3.5205398645898	0
bin	3.7673323821309	0
bin	4.014124899672	0
bin	4.2609174172131	0
bin	4.5077099347542	0
bin	4.7545024522954	0
bin	5.0012949698365	0
bin	5.2480874873776	0
bin	5.4948800049187	0
bin	5.7416725224598	0
bin	5.9884650400009	19
bin	6.2352575575421	0
bin	6.4820500750832	0
bin	6.7288425926243	0
bin	6.9756351101654	0
bin	7.2224276277065	0
bin	7.4692201452477	0
bin	7.7160126627888	0
bin	7.9628051803299	0
scalar LoRaNetworkTest.loRaNodes[9].LoRaNic.radio transmissionState:count 4288
attr interpolationmode sample-hold
attr source transmissionStateChanged
attr title "Radio transmission state, count"
scalar LoRaNetworkTest.loRaNodes[9].LoRaNic.radio receptionState:count 6456
attr interpolationmode sample-hold
attr source receptionStateChanged
attr title "Radio reception state, count"
scalar LoRaNetworkTest.loRaNodes[9].LoRaNic.radio radioMode:count 8017
attr interpolationmode sample-hold
attr source radioModeChanged
attr title "Radio mode, count"
scalar LoRaNetworkTest.loRaNodes[9].SimpleLoRaApp positionX 401.31780903786
scalar LoRaNetworkTest.loRaNodes[9].SimpleLoRaApp positionY 34.097308181226
scalar LoRaNetworkTest.loRaNodes[9].SimpleLoRaApp finalTP 14
scalar LoRaNetworkTest.loRaNodes[9].SimpleLoRaApp finalSF 7
scalar LoRaNetworkTest.loRaNodes[9].SimpleLoRaApp sentPackets 1072
scalar LoRaNetworkTest.loRaNodes[9].SimpleLoRaApp receivedADRCommands 0
scalar LoRaNetworkTest.loRaNodes[9].SimpleLoRaApp LoRa_AppPacketSent:count 1072
attr source LoRa_AppPacketSent
scalar LoRaNetworkTest.loRaNodes[10].LoRaNic.mac numRetry 0
scalar LoRaNetworkTest.loRaNodes[10].LoRaNic.mac numSentWithoutRetry 0
scalar LoRaNetworkTest.loRaNodes[10].LoRaNic.mac numGivenUp 0
scalar LoRaNetworkTest.loRaNodes[10].LoRaNic.mac numSent 1855
scalar LoRaNetworkTest.loRaNodes[10].LoRaNic.mac numReceived 0
scalar LoRaNetworkTest.loRaNodes[10].LoRaNic.mac numSentBroadcast 0
scalar LoRaNetworkTest.loRaNodes[10].LoRaNic.mac numReceivedBroadcast 0
scalar LoRaNetworkTest.loRaNodes[10].LoRaNic.radio.transmitter LoRaTransmissionCreated:count 1071
attr source LoRaTransmissionCreated
scalar LoRaNetworkTest.loRaNodes[10].LoRaNic.radio.receiver numCollisions 0
scalar LoRaNetworkTest.loRaNodes[10].LoRaNic.radio.receiver rcvBelowSensitivity 964
scalar LoRaNetworkTest.loRaNodes[10].LoRaNic.radio.receiver LoRaReceptionCollision:count 0
attr source LoRaReceptionCollision
scalar LoRaNetworkTest.loRaNodes[10].LoRaNic.radio.energyConsumer totalEnergyConsumed 129.29879159258
statistic LoRaNetworkTest.loRaNodes[10].LoRaNic.radio symbolErrorRate:histogram
field count 0
field mean nan
field stddev nan
field min nan
field max nan
field sum 0
field sqrsum 0
attr source symbolErrorRate
attr title "Symbol error rate, histogram"
bin	-inf	0
bin	-0.5	0
bin	-0.46666666666667	0
bin	-0.43333333333333	0
bin	-0.4	0
bin	-0.36666666666667	0
bin	-0.33333333333333	0
bin	-0.3	0
bin	-0.26666666666667	0
bin	-0.23333333333333	0
bin	-0.2	0
bin	-0.16666666666667	0
bin	-0.13333333333333	0
bin	-0.1	0
bin	-0.066666666666667	0
bin	-0.033333333333333	0
bin	-6.9388939039072e-018	0
bin	0.033333333333333	0
bin	0.066666666666667	0
bin	0.1	0
bin	0.13333333333333	0
bin	0.16666666666667	0
bin	0.2	0
bin	0.23333333333333	0
bin	0.26666666666667	0
bin	0.3	0
bin	0.33333333333333	0
bin	0.36666666666667	0
bin	0.4	0
bin	0.43333333333333	0
bin	0.46666666666667	0
bin	0.5	0
statistic LoRaNetworkTest.loRaNodes[10].LoRaNic.radio bitErrorRate:histogram
field count 0
field mean nan
field stddev nan
field min nan
field max nan
field sum 0
field sqrsum 0
attr source bitErrorRate
attr title "Bit error rate, histogram"
bin	-inf	0
bin	-0.5	0
bin	-0.46666666666667	0
bin	-0.43333333333333	0
bin	-0.4	0
bin	-0.36666666666667	0
bin	-0.33333333333333	0
bin	-0.3	0
bin	-0.26666666666667	0
bin	-0.23333333333333	0
bin	-0.2	0
bin	-0.16666666666667	0
bin	-0.13333333333333	0
bin	-0.1	0
bin	-0.066666666666667	0
bin	-0.033333333333333	0
bin	-6.9388939039072e-018	0
bin	0.033333333333333	0
bin	0.066666666666667	0
bin	0.1	0
bin	0.13333333333333	0
bin	0.16666666666667	0
bin	0.2	0
bin	0.23333333333333	0
bin	0.26666666666667	0
bin	0.3	0
bin	0.33333333333333	0
bin	0.36666666666667	0
bin	0.4	0
bin	0.43333333333333	0
bin	0.46666666666667	0
bin	0.5	0
statistic LoRaNetworkTest.loRaNodes[10].LoRaNic.radio packetErrorRate:histogram
field count 0
field mean nan
field stddev nan
field min nan
field max nan
field sum 0
field sqrsum 0
attr source packetErrorRate
attr title "Packet error rate, histogram"
bin	-inf	0
bin	-0.5	0
bin	-0.46666666666667	0
bin	-0.43333333333333	0
bin	-0.4	0
bin	-0.36666666666667	0
bin	-0.33333333333333	0
bin	-0.3	0
bin	-0.26666666666667	0
bin	-0.23333333333333	0
bin	-0.2	0
bin	-0.16666666666667	0
bin	-0.13333333333333	0
bin	-0.1	0
bin	-0.066666666666667	0
bin	-0.033333333333333	0
bin	-6.9388939039072e-018	0
bin	0.033333333333333	0
bin	0.066666666666667	0
bin	0.1	0
bin	0.13333333333333	0
bin	0.16666666666667	0
bin	0.2	0
bin	0.23333333333333	0
bin	0.26666666666667	0
bin	0.3	0
bin	0.33333333333333	0
bin	0.36666666666667	0
bin	0.4	0
bin	0.43333333333333	0
bin	0.46666666666667	0
bin	0.5	0
statistic LoRaNetworkTest.loRaNodes[10].LoRaNic.radio minSNIR:histogram
field count 24
field mean 8.1043593033394
field stddev 0
field min 8.1043593033394
field max 8.1043593033394
field sum 194.50462328015
field sqrsum 1576.335353223
attr source minSNIR
attr title "Min SNIR, histogram"
bin	-inf	0
bin	7.6043593033394	0
bin	7.6376926366728	0
bin	7.6710259700061	0
bin	7.7043593033394	0
bin	7.7376926366728	0
bin	7.7710259700061	0
bin	7.8043593033394	0
bin	7.8376926366728	0
bin	7.8710259700061	0
bin	7.9043593033394	0
bin	7.9376926366728	0
bin	7.9710259700061	0
bin	8.0043593033394	0
bin	8.0376926366728	0
bin	8.0710259700061	0
bin	8.1043593033394	24
bin	8.1376926366728	0
bin	8.1710259700061	0
bin	8.2043593033394	0
bin	8.2376926366728	0
bin	8.2710259700061	0
bin	8.3043593033394	0
bin	8.3376926366728	0
bin	8.3710259700061	0
bin	8.4043593033394	0
bin	8.4376926366728	0
bin	8.4710259700061	0
bin	8.5043593033394	0
bin	8.5376926366728	0
bin	8.5710259700061	0
bin	8.6043593033394	0
scalar LoRaNetworkTest.loRaNodes[10].LoRaNic.radio transmissionState:count 4284
attr interpolationmode sample-hold
attr source transmissionStateChanged
attr title "Radio transmission state, count"
scalar LoRaNetworkTest.loRaNodes[10].LoRaNic.radio receptionState:count 6676
attr interpolationmode sample-hold
attr source receptionStateChanged
attr title "Radio reception state, count"
scalar LoRaNetworkTest.loRaNodes[10].LoRaNic.radio radioMode:count 8196
attr interpolationmode sample-hold
attr source radioModeChanged
attr title "Radio mode, count"
scalar LoRaNetworkTest.loRaNodes[10].SimpleLoRaApp positionX 41.822062544525
scalar LoRaNetworkTest.loRaNodes[10].SimpleLoRaApp positionY 311.12250074744
scalar LoRaNetworkTest.loRaNodes[10].SimpleLoRaApp finalTP 14
scalar LoRaNetworkTest.loRaNodes[10].SimpleLoRaApp finalSF 7
scalar LoRaNetworkTest.loRaNodes[10].SimpleLoRaApp sentPackets 1071
scalar LoRaNetworkTest.loRaNodes[10].SimpleLoRaApp receivedADRCommands 0
scalar LoRaNetworkTest.loRaNodes[10].SimpleLoRaApp LoRa_AppPacketSent:count 1071
attr source LoRa_AppPacketSent
scalar LoRaNetworkTest.loRaNodes[11].LoRaNic.mac numRetry 0
scalar LoRaNetworkTest.loRaNodes[11].LoRaNic.mac numSentWithoutRetry 0
scalar LoRaNetworkTest.loRaNodes[11].LoRaNic.mac numGivenUp 0
scalar LoRaNetworkTest.loRaNodes[11].LoRaNic.mac numSent 1827
scalar LoRaNetworkTest.loRaNodes[11].LoRaNic.mac numReceived 0
scalar LoRaNetworkTest.loRaNodes[11].LoRaNic.mac numSentBroadcast 0
scalar LoRaNetworkTest.loRaNodes[11].LoRaNic.mac numReceivedBroadcast 0
scalar LoRaNetworkTest.loRaNodes[11].LoRaNic.radio.transmitter LoRaTransmissionCreated:count 1035
attr source LoRaTransmissionCreated
scalar LoRaNetworkTest.loRaNodes[11].LoRaNic.radio.receiver numCollisions 0
scalar LoRaNetworkTest.loRaNodes[11].LoRaNic.radio.receiver rcvBelowSensitivity 846
scalar LoRaNetworkTest.loRaNodes[11].LoRaNic.radio.receiver LoRaReceptionCollision:count 0
attr source LoRaReceptionCollision
scalar LoRaNetworkTest.loRaNodes[11].LoRaNic.radio.energyConsumer totalEnergyConsumed 127.34712970438
statistic LoRaNetworkTest.loRaNodes[11].LoRaNic.radio symbolErrorRate:histogram
field count 0
field mean nan
field stddev nan
field min nan
field max nan
field sum 0
field sqrsum 0
attr source symbolErrorRate
attr title "Symbol error rate, histogram"
bin	-inf	0
bin	-0.5	0
bin	-0.46666666666667	0
bin	-0.43333333333333	0
bin	-0.4	0
bin	-0.36666666666667	0
bin	-0.33333333333333	0
bin	-0.3	0
bin	-0.26666666666667	0
bin	-0.23333333333333	0
bin	-0.2	0
bin	-0.16666666666667	0
bin	-0.13333333333333	0
bin	-0.1	0
bin	-0.066666666666667	0
bin	-0.033333333333333	0
bin	-6.9388939039072e-018	0
bin	0.033333333333333	0
bin	0.066666666666667	0
bin	0.1	0
bin	0.13333333333333	0
bin	0.16666666666667	0
bin	0.2	0
bin	0.23333333333333	0
bin	0.26666666666667	0
bin	0.3	0
bin	0.33333333333333	0
bin	0.36666666666667	0
bin	0.4	0
bin	0.43333333333333	0
bin	0.46666666666667	0
bin	0.5	0
statistic LoRaNetworkTest.loRaNodes[11].LoRaNic.radio bitErrorRate:histogram
field count 0
field mean nan
field stddev nan
field min nan
field max nan
field sum 0
field sqrsum 0
attr source bitErrorRate
attr title "Bit error rate, histogram"
bin	-inf	0
bin	-0.5	0
bin	-0.46666666666667	0
bin	-0.43333333333333	0
bin	-0.4	0
bin	-0.36666666666667	0
bin	-0.33333333333333	0
bin	-0.3	0
bin	-0.26666666666667	0
bin	-0.23333333333333	0
bin	-0.2	0
bin	-0.16666666666667	0
bin	-0.13333333333333	0
bin	-0.1	0
bin	-0.066666666666667	0
bin	-0.033333333333333	0
bin	-6.9388939039072e-018	0
bin	0.033333333333333	0
bin	0.066666666666667	0
bin	0.1	0
bin	0.13333333333333	0
bin	0.16666666666667	0
bin	0.2	0
bin	0.23333333333333	0
bin	0.26666666666667	0
bin	0.3	0
bin	0.33333333333333	0
bin	0.36666666666667	0
bin	0.4	0
bin	0.43333333333333	0
bin	0.46666666666667	0
bin	0.5	0
statistic LoRaNetworkTest.loRaNodes[11].LoRaNic.radio packetErrorRate:histogram
field count 0
field mean nan
field stddev nan
field min nan
field max nan
field sum 0
field sqrsum 0
attr source packetErrorRate
attr title "Packet error rate, histogram"
bin	-inf	0
bin	-0.5	0
bin	-0.46666666666667	0
bin	-0.43333333333333	0
bin	-0.4	0
bin	-0.36666666666667	0
bin	-0.33333333333333	0
bin	-0.3	0
bin	-0.26666666666667	0
bin	-0.23333333333333	0
bin	-0.2	0
bin	-0.16666666666667	0
bin	-0.13333333333333	0
bin	-0.1	0
bin	-0.066666666666667	0
bin	-0.033333333333333	0
bin	-6.9388939039072e-018	0
bin	0.033333333333333	0
bin	0.066666666666667	0
bin	0.1	0
bin	0.13333333333333	0
bin	0.16666666666667	0
bin	0.2	0
bin	0.23333333333333	0
bin	0.26666666666667	0
bin	0.3	0
bin	0.33333333333333	0
bin	0.36666666666667	0
bin	0.4	0
bin	0.43333333333333	0
bin	0.46666666666667	0
bin	0.5	0
statistic LoRaNetworkTest.loRaNodes[11].LoRaNic.radio minSNIR:histogram
field count 52
field mean 2.1013063142639
field stddev 0.8818257559905
field min 1.3681304253326
field max 3.8634172210188
field sum 109.26792834172
field sqrsum 269.26383763133
attr source minSNIR
attr title "Min SNIR, histogram"
bin	-inf	0
bin	0.12048702748953	0
bin	0.28683948053528	0
bin	0.45319193358102	0
bin	0.61954438662677	0
bin	0.78589683967252	0
bin	0.95224929271826	0
bin	1.118601745764	0
bin	1.2849541988098	1
bin	1.4513066518555	18
bin	1.6176591049012	1
bin	1.784011557947	22
bin	1.9503640109927	0
bin	2.1167164640385	0
bin	2.2830689170842	0
bin	2.44942137013	0
bin	2.6157738231757	0
bin	2.7821262762215	0
bin	2.9484787292672	0
bin	3.114831182313	0
bin	3.2811836353587	0
bin	3.4475360884045	0
bin	3.6138885414502	0
bin	3.7802409944959	10
bin	3.9465934475417	0
bin	4.1129459005874	0
bin	4.2792983536332	0
bin	4.4456508066789	0
bin	4.6120032597247	0
bin	4.7783557127704	0
bin	4.9447081658162	0
bin	5.1110606188619	0
scalar LoRaNetworkTest.loRaNodes[11].LoRaNic.radio transmissionState:count 4140
attr interpolationmode sample-hold
attr source transmissionStateChanged
attr title "Radio transmission state, count"
scalar LoRaNetworkTest.loRaNodes[11].LoRaNic.radio receptionState:count 6212
attr interpolationmode sample-hold
attr source receptionStateChanged
attr title "Radio reception state, count"
scalar LoRaNetworkTest.loRaNodes[11].LoRaNic.radio radioMode:count 7712
attr interpolationmode sample-hold
attr source radioModeChanged
attr title "Radio mode, count"
scalar LoRaNetworkTest.loRaNodes[11].SimpleLoRaApp positionX 176.75593793392
scalar LoRaNetworkTest.loRaNodes[11].SimpleLoRaApp positionY 399.65752456337
scalar LoRaNetworkTest.loRaNodes[11].SimpleLoRaApp finalTP 14
scalar LoRaNetworkTest.loRaNodes[11].SimpleLoRaApp finalSF 7
scalar LoRaNetworkTest.loRaNodes[11].SimpleLoRaApp sentPackets 1035
scalar LoRaNetworkTest.loRaNodes[11].SimpleLoRaApp receivedADRCommands 0
scalar LoRaNetworkTest.loRaNodes[11].SimpleLoRaApp LoRa_AppPacketSent:count 1035
attr source LoRa_AppPacketSent
scalar LoRaNetworkTest.loRaNodes[12].LoRaNic.mac numRetry 0
scalar LoRaNetworkTest.loRaNodes[12].LoRaNic.mac numSentWithoutRetry 0
scalar LoRaNetworkTest.loRaNodes[12].LoRaNic.mac numGivenUp 0
scalar LoRaNetworkTest.loRaNodes[12].LoRaNic.mac numSent 1784
scalar LoRaNetworkTest.loRaNodes[12].LoRaNic.mac numReceived 0
scalar LoRaNetworkTest.loRaNodes[12].LoRaNic.mac numSentBroadcast 0
scalar LoRaNetworkTest.loRaNodes[12].LoRaNic.mac numReceivedBroadcast 0
scalar LoRaNetworkTest.loRaNodes[12].LoRaNic.radio.transmitter LoRaTransmissionCreated:count 998
attr source LoRaTransmissionCreated
scalar LoRaNetworkTest.loRaNodes[12].LoRaNic.radio.receiver numCollisions 0
scalar LoRaNetworkTest.loRaNodes[12].LoRaNic.radio.receiver rcvBelowSensitivity 772
scalar LoRaNetworkTest.loRaNodes[12].LoRaNic.radio.receiver LoRaReceptionCollision:count 0
attr source LoRaReceptionCollision
scalar LoRaNetworkTest.loRaNodes[12].LoRaNic.radio.energyConsumer totalEnergyConsumed 124.34094874406
statistic LoRaNetworkTest.loRaNodes[12].LoRaNic.radio symbolErrorRate:histogram
field count 0
field mean nan
field stddev nan
field min nan
field max nan
field sum 0
field sqrsum 0
attr source symbolErrorRate
attr title "Symbol error rate, histogram"
bin	-inf	0
bin	-0.5	0
bin	-0.46666666666667	0
bin	-0.43333333333333	0
bin	-0.4	0
bin	-0.36666666666667	0
bin	-0.33333333333333	0
bin	-0.3	0
bin	-0.26666666666667	0
bin	-0.23333333333333	0
bin	-0.2	0
bin	-0.16666666666667	0
bin	-0.13333333333333	0
bin	-0.1	0
bin	-0.066666666666667	0
bin	-0.033333333333333	0
bin	-6.9388939039072e-018	0
bin	0.033333333333333	0
bin	0.066666666666667	0
bin	0.1	0
bin	0.13333333333333	0
bin	0.16666666666667	0
bin	0.2	0
bin	0.23333333333333	0
bin	0.26666666666667	0
bin	0.3	0
bin	0.33333333333333	0
bin	0.36666666666667	0
bin	0.4	0
bin	0.43333333333333	0
bin	0.46666666666667	0
bin	0.5	0
statistic LoRaNetworkTest.loRaNodes[12].LoRaNic.radio bitErrorRate:histogram
field count 0
field mean nan
field stddev nan
field min nan
field max nan
field sum 0
field sqrsum 0
attr source bitErrorRate
attr title "Bit error rate, histogram"
bin	-inf	0
bin	-0.5	0
bin	-0.46666666666667	0
bin	-0.43333333333333	0
bin	-0.4	0
bin	-0.36666666666667	0
bin	-0.33333333333333	0
bin	-0.3	0
bin	-0.26666666666667	0
bin	-0.23333333333333	0
bin	-0.2	0
bin	-0.16666666666667	0
bin	-0.13333333333333	0
bin	-0.1	0
bin	-0.066666666666667	0
bin	-0.033333333333333	0
bin	-6.9388939039072e-018	0
bin	0.033333333333333	0
bin	0.066666666666667	0
bin	0.1	0
bin	0.13333333333333	0
bin	0.16666666666667	0
bin	0.2	0
bin	0.23333333333333	0
bin	0.26666666666667	0
bin	0.3	0
bin	0.33333333333333	0
bin	0.36666666666667	0
bin	0.4	0
bin	0.43333333333333	0
bin	0.46666666666667	0
bin	0.5	0
statistic LoRaNetworkTest.loRaNodes[12].LoRaNic.radio packetErrorRate:histogram
field count 0
field mean nan
field stddev nan
field min nan
field max nan
field sum 0
field sqrsum 0
attr source packetErrorRate
attr title "Packet error rate, histogram"
bin	-inf	0
bin	-0.5	0
bin	-0.46666666666667	0
bin	-0.43333333333333	0
bin	-0.4	0
bin	-0.36666666666667	0
bin	-0.33333333333333	0
bin	-0.3	0
bin	-0.26666666666667	0
bin	-0.23333333333333	0
bin	-0.2	0
bin	-0.16666666666667	0
bin	-0.13333333333333	0
bin	-0.1	0
bin	-0.066666666666667	0
bin	-0.033333333333333	0
bin	-6.9388939039072e-018	0
bin	0.033333333333333	0
bin	0.066666666666667	0
bin	0.1	0
bin	0.13333333333333	0
bin	0.16666666666667	0
bin	0.2	0
bin	0.23333333333333	0
bin	0.26666666666667	0
bin	0.3	0
bin	0.33333333333333	0
bin	0.36666666666667	0
bin	0.4	0
bin	0.43333333333333	0
bin	0.46666666666667	0
bin	0.5	0
statistic LoRaNetworkTest.loRaNodes[12].LoRaNic.radio minSNIR:histogram
field count 100
field mean 3.4072104240846
field stddev 2.4562244327459
field min 0.96470163234553
field max 6.1118612987715
field sum 340.72104240846
field sqrsum 1758.1790953368
attr source minSNIR
attr title "Min SNIR, histogram"
bin	-inf	0
bin	-1.6088782008675	0
bin	-1.2657342231057	0
bin	-0.922590245344	0
bin	-0.57944626758226	0
bin	-0.23630228982053	0
bin	0.1068416879412	0
bin	0.44998566570293	0
bin	0.79312964346466	19
bin	1.1362736212264	36
bin	1.4794175989881	0
bin	1.8225615767499	0
bin	2.1657055545116	0
bin	2.5088495322733	0
bin	2.8519935100351	0
bin	3.1951374877968	0
bin	3.5382814655585	0
bin	3.8814254433203	0
bin	4.224569421082	0
bin	4.5677133988437	0
bin	4.9108573766054	0
bin	5.2540013543672	0
bin	5.5971453321289	0
bin	5.9402893098906	45
bin	6.2834332876524	0
bin	6.6265772654141	0
bin	6.9697212431758	0
bin	7.3128652209376	0
bin	7.6560091986993	0
bin	7.999153176461	0
bin	8.3422971542228	0
bin	8.6854411319845	0
scalar LoRaNetworkTest.loRaNodes[12].LoRaNic.radio transmissionState:count 3992
attr interpolationmode sample-hold
attr source transmissionStateChanged
attr title "Radio transmission state, count"
scalar LoRaNetworkTest.loRaNodes[12].LoRaNic.radio receptionState:count 6092
attr interpolationmode sample-hold
attr source receptionStateChanged
attr title "Radio reception state, count"
scalar LoRaNetworkTest.loRaNodes[12].LoRaNic.radio radioMode:count 7463
attr interpolationmode sample-hold
attr source radioModeChanged
attr title "Radio mode, count"
scalar LoRaNetworkTest.loRaNodes[12].SimpleLoRaApp positionX 373.51524330676
scalar LoRaNetworkTest.loRaNodes[12].SimpleLoRaApp positionY 67.368373163044
scalar LoRaNetworkTest.loRaNodes[12].SimpleLoRaApp finalTP 14
scalar LoRaNetworkTest.loRaNodes[12].SimpleLoRaApp finalSF 7
scalar LoRaNetworkTest.loRaNodes[12].SimpleLoRaApp sentPackets 998
scalar LoRaNetworkTest.loRaNodes[12].SimpleLoRaApp receivedADRCommands 0
scalar LoRaNetworkTest.loRaNodes[12].SimpleLoRaApp LoRa_AppPacketSent:count 998
attr source LoRa_AppPacketSent
scalar LoRaNetworkTest.loRaNodes[13].LoRaNic.mac numRetry 0
scalar LoRaNetworkTest.loRaNodes[13].LoRaNic.mac numSentWithoutRetry 0
scalar LoRaNetworkTest.loRaNodes[13].LoRaNic.mac numGivenUp 0
scalar LoRaNetworkTest.loRaNodes[13].LoRaNic.mac numSent 1834
scalar LoRaNetworkTest.loRaNodes[13].LoRaNic.mac numReceived 0
scalar LoRaNetworkTest.loRaNodes[13].LoRaNic.mac numSentBroadcast 0
scalar LoRaNetworkTest.loRaNodes[13].LoRaNic.mac numReceivedBroadcast 0
scalar LoRaNetworkTest.loRaNodes[13].LoRaNic.radio.transmitter LoRaTransmissionCreated:count 1008
attr source LoRaTransmissionCreated
scalar LoRaNetworkTest.loRaNodes[13].LoRaNic.radio.receiver numCollisions 0
scalar LoRaNetworkTest.loRaNodes[13].LoRaNic.radio.receiver rcvBelowSensitivity 965
scalar LoRaNetworkTest.loRaNodes[13].LoRaNic.radio.receiver LoRaReceptionCollision:count 0
attr source LoRaReceptionCollision
scalar LoRaNetworkTest.loRaNodes[13].LoRaNic.radio.energyConsumer totalEnergyConsumed 127.84424093827
statistic LoRaNetworkTest.loRaNodes[13].LoRaNic.radio symbolErrorRate:histogram
field count 0
field mean nan
field stddev nan
field min nan
field max nan
field sum 0
field sqrsum 0
attr source symbolErrorRate
attr title "Symbol error rate, histogram"
bin	-inf	0
bin	-0.5	0
bin	-0.46666666666667	0
bin	-0.43333333333333	0
bin	-0.4	0
bin	-0.36666666666667	0
bin	-0.33333333333333	0
bin	-0.3	0
bin	-0.26666666666667	0
bin	-0.23333333333333	0
bin	-0.2	0
bin	-0.16666666666667	0
bin	-0.13333333333333	0
bin	-0.1	0
bin	-0.066666666666667	0
bin	-0.033333333333333	0
bin	-6.9388939039072e-018	0
bin	0.033333333333333	0
bin	0.066666666666667	0
bin	0.1	0
bin	0.13333333333333	0
bin	0.16666666666667	0
bin	0.2	0
bin	0.23333333333333	0
bin	0.26666666666667	0
bin	0.3	0
bin	0.33333333333333	0
bin	0.36666666666667	0
bin	0.4	0
bin	0.43333333333333	0
bin	0.46666666666667	0
bin	0.5	0
statistic LoRaNetworkTest.loRaNodes[13].LoRaNic.radio bitErrorRate:histogram
field count 0
field mean nan
field stddev nan
field min nan
field max nan
field sum 0
field sqrsum 0
attr source bitErrorRate
attr title "Bit error rate, histogram"
bin	-inf	0
bin	-0.5	0
bin	-0.46666666666667	0
bin	-0.43333333333333	0
bin	-0.4	0
bin	-0.36666666666667	0
bin	-0.33333333333333	0
bin	-0.3	0
bin	-0.26666666666667	0
bin	-0.23333333333333	0
bin	-0.2	0
bin	-0.16666666666667	0
bin	-0.13333333333333	0
bin	-0.1	0
bin	-0.066666666666667	0
bin	-0.033333333333333	0
bin	-6.9388939039072e-018	0
bin	0.033333333333333	0
bin	0.066666666666667	0
bin	0.1	0
bin	0.13333333333333	0
bin	0.16666666666667	0
bin	0.2	0
bin	0.23333333333333	0
bin	0.26666666666667	0
bin	0.3	0
bin	0.33333333333333	0
bin	0.36666666666667	0
bin	0.4	0
bin	0.43333333333333	0
bin	0.46666666666667	0
bin	0.5	0
statistic LoRaNetworkTest.loRaNodes[13].LoRaNic.radio packetErrorRate:histogram
field count 0
field mean nan
field stddev nan
field min nan
field max nan
field sum 0
field sqrsum 0
attr source packetErrorRate
attr title "Packet error rate, histogram"
bin	-inf	0
bin	-0.5	0
bin	-0.46666666666667	0
bin	-0.43333333333333	0
bin	-0.4	0
bin	-0.36666666666667	0
bin	-0.33333333333333	0
bin	-0.3	0
bin	-0.26666666666667	0
bin	-0.23333333333333	0
bin	-0.2	0
bin	-0.16666666666667	0
bin	-0.13333333333333	0
bin	-0.1	0
bin	-0.066666666666667	0
bin	-0.033333333333333	0
bin	-6.9388939039072e-018	0
bin	0.033333333333333	0
bin	0.066666666666667	0
bin	0.1	0
bin	0.13333333333333	0
bin	0.16666666666667	0
bin	0.2	0
bin	0.23333333333333	0
bin	0.26666666666667	0
bin	0.3	0
bin	0.33333333333333	0
bin	0.36666666666667	0
bin	0.4	0
bin	0.43333333333333	0
bin	0.46666666666667	0
bin	0.5	0
statistic LoRaNetworkTest.loRaNodes[13].LoRaNic.radio minSNIR:histogram
field count 19
field mean 1.2728368573551
field stddev 0.043295083855999
field min 1.0940505355105
field max 1.2827694307909
field sum 24.183900289746
field sqrsum 30.815900000538
attr source minSNIR
attr title "Min SNIR, histogram"
bin	-inf	0
bin	0.99969108787035	0
bin	1.0122723475557	0
bin	1.0248536072411	0
bin	1.0374348669264	0
[...]
scalar LoRaNetworkTest.gwRouter[0].networkLayer.arp initiatedARPResolution:count 0
attr title "ARP initiated resolutions, count"
scalar LoRaNetworkTest.gwRouter[0].lo0.lo droppedPkBitError:count 0
attr interpolationmode none
attr source dropPkBitError
attr title "packets dropped/bit error, count"
scalar LoRaNetworkTest.gwRouter[0].lo0.lo droppedPkBitError:sum(packetBytes) 0
attr interpolationmode none
attr source dropPkBitError
attr title "packets dropped/bit error, sum(packetBytes)"
scalar LoRaNetworkTest.gwRouter[0].lo0.lo rcvdPkFromHL:count 0
attr interpolationmode none
attr source packetReceivedFromUpper
attr title "packets received from higher layer, count"
scalar LoRaNetworkTest.gwRouter[0].lo0.lo rcvdPkFromHL:sum(packetBytes) 0
attr interpolationmode none
attr source packetReceivedFromUpper
attr title "packets received from higher layer, sum(packetBytes)"
scalar LoRaNetworkTest.gwRouter[0].lo0.lo passedUpPk:count 0
attr interpolationmode none
attr source packetSentToUpper
attr title "packets passed to higher layer, count"
scalar LoRaNetworkTest.gwRouter[0].lo0.lo passedUpPk:sum(packetBytes) 0
attr interpolationmode none
attr source packetSentToUpper
attr title "packets passed to higher layer, sum(packetBytes)"
scalar LoRaNetworkTest.gwRouter[0].eth[0].mac "simulated time" 197259.91014713
scalar LoRaNetworkTest.gwRouter[0].eth[0].mac full-duplex 1
scalar LoRaNetworkTest.gwRouter[0].eth[0].mac "frames/sec sent" 0.0075484167000247
scalar LoRaNetworkTest.gwRouter[0].eth[0].mac "frames/sec rcvd" 0.080594176425113
scalar LoRaNetworkTest.gwRouter[0].eth[0].mac "bits/sec sent" 3.8647893504127
scalar LoRaNetworkTest.gwRouter[0].eth[0].mac "bits/sec rcvd" 41.264218329658
scalar LoRaNetworkTest.gwRouter[0].eth[0].mac "rx channel idle (%)" 99.999995357775
scalar LoRaNetworkTest.gwRouter[0].eth[0].mac "rx channel utilization (%)" 4.6422245620865e-006
scalar LoRaNetworkTest.gwRouter[0].eth[0].mac rxPkFromHL:count 836
attr interpolationmode none
attr source rxPkFromHL
attr title "packet bytes from higher layer, count"
scalar LoRaNetworkTest.gwRouter[0].eth[0].mac rxPkFromHL:sum(packetBytes) 53504
attr interpolationmode none
attr source rxPkFromHL
attr title "packet bytes from higher layer, sum(packetBytes)"
scalar LoRaNetworkTest.gwRouter[0].eth[0].mac rxPausePkUnits:count 0
attr interpolationmode none
attr title "pause units received, count"
scalar LoRaNetworkTest.gwRouter[0].eth[0].mac rxPausePkUnits:sum 0
attr interpolationmode none
attr title "pause units received, sum"
scalar LoRaNetworkTest.gwRouter[0].eth[0].mac txPausePkUnits:count 0
attr interpolationmode none
attr title "pause units sent, count"
scalar LoRaNetworkTest.gwRouter[0].eth[0].mac txPausePkUnits:sum 0
attr interpolationmode none
attr title "pause units sent, sum"
scalar LoRaNetworkTest.gwRouter[0].eth[0].mac txPk:count 836
attr interpolationmode none
attr source txPk
attr title "packets transmitted, count"
scalar LoRaNetworkTest.gwRouter[0].eth[0].mac txPk:sum(packetBytes) 53504
attr interpolationmode none
attr source txPk
attr title "packets transmitted, sum(packetBytes)"
scalar LoRaNetworkTest.gwRouter[0].eth[0].mac droppedPkNotForUs:count 0
attr interpolationmode none
attr source dropPkNotForUs
attr title "packets dropped/not for us, count"
scalar LoRaNetworkTest.gwRouter[0].eth[0].mac droppedPkNotForUs:sum(packetBytes) 0
attr interpolationmode none
attr source dropPkNotForUs
attr title "packets dropped/not for us, sum(packetBytes)"
scalar LoRaNetworkTest.gwRouter[0].eth[0].mac droppedPkBitError:count 0
attr interpolationmode none
attr source dropPkBitError
attr title "packets dropped/bit error, count"
scalar LoRaNetworkTest.gwRouter[0].eth[0].mac droppedPkBitError:sum(packetBytes) 0
attr interpolationmode none
attr source dropPkBitError
attr title "packets dropped/bit error, sum(packetBytes)"
scalar LoRaNetworkTest.gwRouter[0].eth[0].mac droppedPkIfaceDown:count 0
attr interpolationmode none
attr source dropPkIfaceDown
attr title "packets dropped/interface down, count"
scalar LoRaNetworkTest.gwRouter[0].eth[0].mac droppedPkIfaceDown:sum(packetBytes) 0
attr interpolationmode none
attr source dropPkIfaceDown
attr title "packets dropped/interface down, sum(packetBytes)"
scalar LoRaNetworkTest.gwRouter[0].eth[0].mac rxPkOk:count 8934
attr interpolationmode none
attr source rxPkOk
attr title "packets received OK, count"
scalar LoRaNetworkTest.gwRouter[0].eth[0].mac rxPkOk:sum(packetBytes) 571776
attr interpolationmode none
attr source rxPkOk
attr title "packets received OK, sum(packetBytes)"
scalar LoRaNetworkTest.gwRouter[0].eth[0].mac passedUpPk:count 8934
attr interpolationmode none
attr source packetSentToUpper
attr title "packets passed to higher layer, count"
scalar LoRaNetworkTest.gwRouter[0].eth[0].mac passedUpPk:sum(packetBytes) 571776
attr interpolationmode none
attr source packetSentToUpper
attr title "packets passed to higher layer, sum(packetBytes)"
scalar LoRaNetworkTest.gwRouter[0].eth[0].encap pauseSent:count 0
attr title "pause sent, count"
scalar LoRaNetworkTest.gwRouter[0].eth[0].encap pauseSent:sum 0
attr title "pause sent, sum"
scalar LoRaNetworkTest.gwRouter[0].eth[0].encap decapPk:count 8934
attr interpolationmode none
attr source decapPk
attr title "packets decapsulated, count"
scalar LoRaNetworkTest.gwRouter[0].eth[0].encap decapPk:sum(packetBytes) 314936
attr interpolationmode none
attr source decapPk
attr title "packets decapsulated, sum(packetBytes)"
scalar LoRaNetworkTest.gwRouter[0].eth[0].encap encapPk:count 836
attr interpolationmode none
attr source encapPk
attr title "packets encapsulated, count"
scalar LoRaNetworkTest.gwRouter[0].eth[0].encap encapPk:sum(packetBytes) 23408
attr interpolationmode none
attr source encapPk
attr title "packets encapsulated, sum(packetBytes)"
scalar LoRaNetworkTest.gwRouter[0].ppp[0].queue queueLength:max nan
attr interpolationmode sample-hold
attr title "queue length, max"
scalar LoRaNetworkTest.gwRouter[0].ppp[0].queue queueLength:timeavg nan
attr interpolationmode sample-hold
attr title "queue length, timeavg"
statistic LoRaNetworkTest.gwRouter[0].ppp[0].queue queueingTime:histogram
field count 8098
field mean 0
field stddev 0
field min 0
field max 0
field sum 0
field sqrsum 0
attr interpolationmode none
attr title "queueing time, histogram"
bin	-inf	0
bin	-0.5	0
bin	-0.46666666666667	0
bin	-0.43333333333333	0
bin	-0.4	0
bin	-0.36666666666667	0
bin	-0.33333333333333	0
bin	-0.3	0
bin	-0.26666666666667	0
bin	-0.23333333333333	0
bin	-0.2	0
bin	-0.16666666666667	0
bin	-0.13333333333333	0
bin	-0.1	0
bin	-0.066666666666667	0
bin	-0.033333333333333	0
bin	-6.9388939039072e-018	8098
bin	0.033333333333333	0
bin	0.066666666666667	0
bin	0.1	0
bin	0.13333333333333	0
bin	0.16666666666667	0
bin	0.2	0
bin	0.23333333333333	0
bin	0.26666666666667	0
bin	0.3	0
bin	0.33333333333333	0
bin	0.36666666666667	0
bin	0.4	0
bin	0.43333333333333	0
bin	0.46666666666667	0
bin	0.5	0
scalar LoRaNetworkTest.gwRouter[0].ppp[0].queue dropPk:count 0
attr interpolationmode none
attr source dropPkByQueue
attr title "dropped packets, count"
scalar LoRaNetworkTest.gwRouter[0].ppp[0].queue dropPk:sum(packetBytes) 0
attr interpolationmode none
attr source dropPkByQueue
attr title "dropped packets, sum(packetBytes)"
scalar LoRaNetworkTest.gwRouter[0].ppp[0].queue rcvdPk:count 8098
attr interpolationmode none
attr title "received packets, count"
scalar LoRaNetworkTest.gwRouter[0].ppp[0].queue rcvdPk:sum(packetBytes) 291528
attr interpolationmode none
attr title "received packets, sum(packetBytes)"
scalar LoRaNetworkTest.gwRouter[0].ppp[0].ppp droppedPkBitError:count 0
attr interpolationmode none
attr source dropPkBitError
attr title "packets dropped/bit error, count"
scalar LoRaNetworkTest.gwRouter[0].ppp[0].ppp droppedPkBitError:sum(packetBytes) 0
attr interpolationmode none
attr source dropPkBitError
attr title "packets dropped/bit error, sum(packetBytes)"
scalar LoRaNetworkTest.gwRouter[0].ppp[0].ppp droppedPkIfaceDown:count 0
attr interpolationmode none
attr source dropPkIfaceDown
attr title "packets dropped/interface down, count"
scalar LoRaNetworkTest.gwRouter[0].ppp[0].ppp droppedPkIfaceDown:sum(packetBytes) 0
attr interpolationmode none
attr source dropPkIfaceDown
attr title "packets dropped/interface down, sum(packetBytes)"
scalar LoRaNetworkTest.gwRouter[0].ppp[0].ppp rxPkOk:count 0
attr interpolationmode none
attr source rxPkOk
attr title "packets received OK, count"
scalar LoRaNetworkTest.gwRouter[0].ppp[0].ppp rxPkOk:sum(packetBytes) 0
attr interpolationmode none
attr source rxPkOk
attr title "packets received OK, sum(packetBytes)"
scalar LoRaNetworkTest.gwRouter[0].ppp[0].ppp txState:timeavg 2.5128860734814e-008
attr interpolationmode sample-hold
attr title "tx state, timeavg"
scalar LoRaNetworkTest.gwRouter[0].ppp[0].ppp rcvdPkFromHL:count 8098
attr interpolationmode none
attr source packetReceivedFromUpper
attr title "packets received from higher layer, count"
scalar LoRaNetworkTest.gwRouter[0].ppp[0].ppp rcvdPkFromHL:sum(packetBytes) 291528
attr interpolationmode none
attr source packetReceivedFromUpper
attr title "packets received from higher layer, sum(packetBytes)"
scalar LoRaNetworkTest.gwRouter[0].ppp[0].ppp passedUpPk:count 0
attr interpolationmode none
attr source packetSentToUpper
attr title "packets passed to higher layer, count"
scalar LoRaNetworkTest.gwRouter[0].ppp[0].ppp passedUpPk:sum(packetBytes) 0
attr interpolationmode none
attr source packetSentToUpper
attr title "packets passed to higher layer, sum(packetBytes)"
scalar LoRaNetworkTest.gwRouter[0].ppp[0].ppp txPk:count 8098
attr interpolationmode none
attr source packetSentToLower
attr title "packets transmitted, count"
scalar LoRaNetworkTest.gwRouter[0].ppp[0].ppp txPk:sum(packetBytes) 348214
attr interpolationmode none
attr source packetSentToLower
attr title "packets transmitted, sum(packetBytes)"
scalar LoRaNetworkTest.nsRouter.networkLayer.arp sentReply:count 0
attr title "ARP replies sent, count"
scalar LoRaNetworkTest.nsRouter.networkLayer.arp sentReq:count 836
attr title "ARP request sent, count"
scalar LoRaNetworkTest.nsRouter.networkLayer.arp failedARPResolution:count 0
attr title "ARP failed resolutions, count"
scalar LoRaNetworkTest.nsRouter.networkLayer.arp completedARPResolution:count 836
attr title "ARP completed resolutions, count"
scalar LoRaNetworkTest.nsRouter.networkLayer.arp initiatedARPResolution:count 836
attr title "ARP initiated resolutions, count"
scalar LoRaNetworkTest.nsRouter.lo0.lo droppedPkBitError:count 0
attr interpolationmode none
attr source dropPkBitError
attr title "packets dropped/bit error, count"
scalar LoRaNetworkTest.nsRouter.lo0.lo droppedPkBitError:sum(packetBytes) 0
attr interpolationmode none
attr source dropPkBitError
attr title "packets dropped/bit error, sum(packetBytes)"
scalar LoRaNetworkTest.nsRouter.lo0.lo rcvdPkFromHL:count 0
attr interpolationmode none
attr source packetReceivedFromUpper
attr title "packets received from higher layer, count"
scalar LoRaNetworkTest.nsRouter.lo0.lo rcvdPkFromHL:sum(packetBytes) 0
attr interpolationmode none
attr source packetReceivedFromUpper
attr title "packets received from higher layer, sum(packetBytes)"
scalar LoRaNetworkTest.nsRouter.lo0.lo passedUpPk:count 0
attr interpolationmode none
attr source packetSentToUpper
attr title "packets passed to higher layer, count"
scalar LoRaNetworkTest.nsRouter.lo0.lo passedUpPk:sum(packetBytes) 0
attr interpolationmode none
attr source packetSentToUpper
attr title "packets passed to higher layer, sum(packetBytes)"
scalar LoRaNetworkTest.nsRouter.eth[0].mac "simulated time" 197259.91014713
scalar LoRaNetworkTest.nsRouter.eth[0].mac full-duplex 1
scalar LoRaNetworkTest.nsRouter.eth[0].mac "frames/sec sent" 0.080594176425113
scalar LoRaNetworkTest.nsRouter.eth[0].mac "frames/sec rcvd" 0.0075484167000247
scalar LoRaNetworkTest.nsRouter.eth[0].mac "bits/sec sent" 41.264218329658
scalar LoRaNetworkTest.nsRouter.eth[0].mac "bits/sec rcvd" 3.8647893504127
scalar LoRaNetworkTest.nsRouter.eth[0].mac "rx channel idle (%)" 99.999999565211
scalar LoRaNetworkTest.nsRouter.eth[0].mac "rx channel utilization (%)" 4.3478880192142e-007
scalar LoRaNetworkTest.nsRouter.eth[0].mac rxPkFromHL:count 8934
attr interpolationmode none
attr source rxPkFromHL
attr title "packet bytes from higher layer, count"
scalar LoRaNetworkTest.nsRouter.eth[0].mac rxPkFromHL:sum(packetBytes) 571776
attr interpolationmode none
attr source rxPkFromHL
attr title "packet bytes from higher layer, sum(packetBytes)"
scalar LoRaNetworkTest.nsRouter.eth[0].mac rxPausePkUnits:count 0
attr interpolationmode none
attr title "pause units received, count"
scalar LoRaNetworkTest.nsRouter.eth[0].mac rxPausePkUnits:sum 0
attr interpolationmode none
attr title "pause units received, sum"
scalar LoRaNetworkTest.nsRouter.eth[0].mac txPausePkUnits:count 0
attr interpolationmode none
attr title "pause units sent, count"
scalar LoRaNetworkTest.nsRouter.eth[0].mac txPausePkUnits:sum 0
attr interpolationmode none
attr title "pause units sent, sum"
scalar LoRaNetworkTest.nsRouter.eth[0].mac txPk:count 8934
attr interpolationmode none
attr source txPk
attr title "packets transmitted, count"
scalar LoRaNetworkTest.nsRouter.eth[0].mac txPk:sum(packetBytes) 571776
attr interpolationmode none
attr source txPk
attr title "packets transmitted, sum(packetBytes)"
scalar LoRaNetworkTest.nsRouter.eth[0].mac droppedPkNotForUs:count 0
attr interpolationmode none
attr source dropPkNotForUs
attr title "packets dropped/not for us, count"
scalar LoRaNetworkTest.nsRouter.eth[0].mac droppedPkNotForUs:sum(packetBytes) 0
attr interpolationmode none
attr source dropPkNotForUs
attr title "packets dropped/not for us, sum(packetBytes)"
scalar LoRaNetworkTest.nsRouter.eth[0].mac droppedPkBitError:count 0
attr interpolationmode none
attr source dropPkBitError
attr title "packets dropped/bit error, count"
scalar LoRaNetworkTest.nsRouter.eth[0].mac droppedPkBitError:sum(packetBytes) 0
attr interpolationmode none
attr source dropPkBitError
attr title "packets dropped/bit error, sum(packetBytes)"
scalar LoRaNetworkTest.nsRouter.eth[0].mac droppedPkIfaceDown:count 0
attr interpolationmode none
attr source dropPkIfaceDown
attr title "packets dropped/interface down, count"
scalar LoRaNetworkTest.nsRouter.eth[0].mac droppedPkIfaceDown:sum(packetBytes) 0
attr interpolationmode none
attr source dropPkIfaceDown
attr title "packets dropped/interface down, sum(packetBytes)"
scalar LoRaNetworkTest.nsRouter.eth[0].mac rxPkOk:count 836
attr interpolationmode none
attr source rxPkOk
attr title "packets received OK, count"
scalar LoRaNetworkTest.nsRouter.eth[0].mac rxPkOk:sum(packetBytes) 53504
attr interpolationmode none
attr source rxPkOk
attr title "packets received OK, sum(packetBytes)"
scalar LoRaNetworkTest.nsRouter.eth[0].mac passedUpPk:count 836
attr interpolationmode none
attr source packetSentToUpper
attr title "packets passed to higher layer, count"
scalar LoRaNetworkTest.nsRouter.eth[0].mac passedUpPk:sum(packetBytes) 53504
attr interpolationmode none
attr source packetSentToUpper
attr title "packets passed to higher layer, sum(packetBytes)"
scalar LoRaNetworkTest.nsRouter.eth[0].encap pauseSent:count 0
attr title "pause sent, count"
scalar LoRaNetworkTest.nsRouter.eth[0].encap pauseSent:sum 0
attr title "pause sent, sum"
scalar LoRaNetworkTest.nsRouter.eth[0].encap decapPk:count 836
attr interpolationmode none
attr source decapPk
attr title "packets decapsulated, count"
scalar LoRaNetworkTest.nsRouter.eth[0].encap decapPk:sum(packetBytes) 23408
attr interpolationmode none
attr source decapPk
attr title "packets decapsulated, sum(packetBytes)"
scalar LoRaNetworkTest.nsRouter.eth[0].encap encapPk:count 8934
attr interpolationmode none
attr source encapPk
attr title "packets encapsulated, count"
scalar LoRaNetworkTest.nsRouter.eth[0].encap encapPk:sum(packetBytes) 314936
attr interpolationmode none
attr source encapPk
attr title "packets encapsulated, sum(packetBytes)"
scalar LoRaNetworkTest.nsRouter.ppp[0].queue queueLength:max nan
attr interpolationmode sample-hold
attr title "queue length, max"
scalar LoRaNetworkTest.nsRouter.ppp[0].queue queueLength:timeavg nan
attr interpolationmode sample-hold
attr title "queue length, timeavg"
statistic LoRaNetworkTest.nsRouter.ppp[0].queue queueingTime:histogram
field count 0
field mean nan
field stddev nan
field min nan
field max nan
field sum 0
field sqrsum 0
attr interpolationmode none
attr title "queueing time, histogram"
bin	-inf	0
bin	-0.5	0
bin	-0.46666666666667	0
bin	-0.43333333333333	0
bin	-0.4	0
bin	-0.36666666666667	0
bin	-0.33333333333333	0
bin	-0.3	0
bin	-0.26666666666667	0
bin	-0.23333333333333	0
bin	-0.2	0
bin	-0.16666666666667	0
bin	-0.13333333333333	0
bin	-0.1	0
bin	-0.066666666666667	0
bin	-0.033333333333333	0
bin	-6.9388939039072e-018	0
bin	0.033333333333333	0
bin	0.066666666666667	0
bin	0.1	0
bin	0.13333333333333	0
bin	0.16666666666667	0
bin	0.2	0
bin	0.23333333333333	0
bin	0.26666666666667	0
bin	0.3	0
bin	0.33333333333333	0
bin	0.36666666666667	0
bin	0.4	0
bin	0.43333333333333	0
bin	0.46666666666667	0
bin	0.5	0
scalar LoRaNetworkTest.nsRouter.ppp[0].queue dropPk:count 0
attr interpolationmode none
attr source dropPkByQueue
attr title "dropped packets, count"
scalar LoRaNetworkTest.nsRouter.ppp[0].queue dropPk:sum(packetBytes) 0
attr interpolationmode none
attr source dropPkByQueue
attr title "dropped packets, sum(packetBytes)"
scalar LoRaNetworkTest.nsRouter.ppp[0].queue rcvdPk:count 0
attr interpolationmode none
attr title "received packets, count"
scalar LoRaNetworkTest.nsRouter.ppp[0].queue rcvdPk:sum(packetBytes) 0
attr interpolationmode none
attr title "received packets, sum(packetBytes)"
scalar LoRaNetworkTest.nsRouter.ppp[0].ppp droppedPkBitError:count 0
attr interpolationmode none
attr source dropPkBitError
attr title "packets dropped/bit error, count"
scalar LoRaNetworkTest.nsRouter.ppp[0].ppp droppedPkBitError:sum(packetBytes) 0
attr interpolationmode none
attr source dropPkBitError
attr title "packets dropped/bit error, sum(packetBytes)"
scalar LoRaNetworkTest.nsRouter.ppp[0].ppp droppedPkIfaceDown:count 0
attr interpolationmode none
attr source dropPkIfaceDown
attr title "packets dropped/interface down, count"
scalar LoRaNetworkTest.nsRouter.ppp[0].ppp droppedPkIfaceDown:sum(packetBytes) 0
attr interpolationmode none
attr source dropPkIfaceDown
attr title "packets dropped/interface down, sum(packetBytes)"
scalar LoRaNetworkTest.nsRouter.ppp[0].ppp rxPkOk:count 8098
attr interpolationmode none
attr source rxPkOk
attr title "packets received OK, count"
scalar LoRaNetworkTest.nsRouter.ppp[0].ppp rxPkOk:sum(packetBytes) 348214
attr interpolationmode none
attr source rxPkOk
attr title "packets received OK, sum(packetBytes)"
scalar LoRaNetworkTest.nsRouter.ppp[0].ppp txState:timeavg nan
attr interpolationmode sample-hold
attr title "tx state, timeavg"
scalar LoRaNetworkTest.nsRouter.ppp[0].ppp rcvdPkFromHL:count 0
attr interpolationmode none
attr source packetReceivedFromUpper
attr title "packets received from higher layer, count"
scalar LoRaNetworkTest.nsRouter.ppp[0].ppp rcvdPkFromHL:sum(packetBytes) 0
attr interpolationmode none
attr source packetReceivedFromUpper
attr title "packets received from higher layer, sum(packetBytes)"
scalar LoRaNetworkTest.nsRouter.ppp[0].ppp passedUpPk:count 8098
attr interpolationmode none
attr source packetSentToUpper
attr title "packets passed to higher layer, count"
scalar LoRaNetworkTest.nsRouter.ppp[0].ppp passedUpPk:sum(packetBytes) 291528
attr interpolationmode none
attr source packetSentToUpper
attr title "packets passed to higher layer, sum(packetBytes)"
scalar LoRaNetworkTest.nsRouter.ppp[0].ppp txPk:count 0
attr interpolationmode none
attr source packetSentToLower
attr title "packets transmitted, count"
scalar LoRaNetworkTest.nsRouter.ppp[0].ppp txPk:sum(packetBytes) 0
attr interpolationmode none
attr source packetSentToLower
attr title "packets transmitted, sum(packetBytes)"

