version 2
run General-0-20210611-21:05:16-25668
attr configname General
attr datetime 20210611-21:05:16
attr experiment General
attr inifile loRaNetworkTest.ini
attr iterationvars "$0=\"avg\""
attr iterationvarsf avg-
attr measurement "$0=\"avg\""
attr network LoRaNetworkTest
attr processid 25668
attr repetition 0
attr replication #0
attr resultdir results
attr runnumber 0
attr seedset 0
param **.numberOfGateways 1
param **.loRaGW[0].numUdpApps 1
param **.loRaGW[0].packetForwarder.localPort 2000
param **.loRaGW[0].packetForwarder.destPort 1000
param **.loRaGW[0].packetForwarder.destAddresses "\"networkServer\""
param **.loRaGW[0].packetForwarder.indexNumber 0
param **.loRaGW[1].numUdpApps 1
param **.loRaGW[1].packetForwarder.localPort 2000
param **.loRaGW[1].packetForwarder.destPort 1000
param **.loRaGW[1].packetForwarder.destAddresses "\"networkServer\""
param **.loRaGW[1].packetForwarder.indexNumber 1
param **.networkServer.numUdpApps 1
param **.networkServer.**.evaluateADRinServer false
param **.networkServer.udpApp[0].typename "\"NetworkServerApp\""
param **.networkServer.udpApp[0].destAddresses "\"loRaGW[0]\""
param **.networkServer.udpApp[0].destPort 2000
param **.networkServer.udpApp[0].localPort 1000
param **.networkServer.udpApp[0].adrMethod "\"avg\""
param **.numberOfNodes 30
param **.numberOfPacketsToSend 0
param **.timeToFirstPacket exponential(100s)
param **.timeToNextPacket exponential(100s)
param **.alohaChannelModel false
param **.loRaNodes[*].**.initFromDisplayString false
param **.loRaNodes[*].**.evaluateADRinNode false
param **.loRaNodes[*].**initialLoRaSF 12
param **.loRaNodes[*].**initialLoRaBW "250 kHz"
param **.loRaNodes[*].**initialLoRaCR 4
param **.loRaNodes[*].**initialLoRaTP "14 dBm"
param **.loRaNodes[*].**.initialX "uniform(0m, 480m)"
param **.loRaNodes[*].**.initialY "uniform(0m, 480m)"
param **.LoRaGWNic.radio.iAmGateway true
param **.loRaGW[*].**.initFromDisplayString false
param **.loRaGW[0].**.initialX 240m
param **.loRaGW[0].**.initialY 240m
param **.loRaNodes[*].LoRaNic.radio.energyConsumerType "\"LoRaEnergyConsumer\""
param **.loRaNodes[*].**.energySourceModule "\"IdealEpEnergyStorage\""
param **.loRaNodes[*].LoRaNic.radio.energyConsumer.configFile "xmldoc(\"energyConsumptionParameters.xml\")"
param **.sigma 0
param **.constraintAreaMinX 0m
param **.constraintAreaMinY 0m
param **.constraintAreaMinZ 0m
param **.constraintAreaMaxX 480m
param **.constraintAreaMaxY 480m
param **.constraintAreaMaxZ 0m
param LoRaNetworkTest.**.radio.separateTransmissionParts false
param LoRaNetworkTest.**.radio.separateReceptionParts false
param **.delayer.config "xmldoc(\"cloudDelays.xml\")"
param **.radio.radioMediumModule "\"LoRaMedium\""
param **.LoRaMedium.pathLossType "\"LoRaLogNormalShadowing\""
param **.minInterferenceTime 0s
param **.displayAddresses false

scalar LoRaNetworkTest.loRaNodes[0].LoRaNic.mac numRetry 0
scalar LoRaNetworkTest.loRaNodes[0].LoRaNic.mac numSentWithoutRetry 0
scalar LoRaNetworkTest.loRaNodes[0].LoRaNic.mac numGivenUp 0
scalar LoRaNetworkTest.loRaNodes[0].LoRaNic.mac numSent 712
scalar LoRaNetworkTest.loRaNodes[0].LoRaNic.mac numReceived 0
scalar LoRaNetworkTest.loRaNodes[0].LoRaNic.mac numSentBroadcast 0
scalar LoRaNetworkTest.loRaNodes[0].LoRaNic.mac numReceivedBroadcast 0
scalar LoRaNetworkTest.loRaNodes[0].LoRaNic.radio.transmitter LoRaTransmissionCreated:count 398
attr source LoRaTransmissionCreated
scalar LoRaNetworkTest.loRaNodes[0].LoRaNic.radio.receiver numCollisions 0
scalar LoRaNetworkTest.loRaNodes[0].LoRaNic.radio.receiver rcvBelowSensitivity 0
scalar LoRaNetworkTest.loRaNodes[0].LoRaNic.radio.receiver LoRaReceptionCollision:count 0
attr source LoRaReceptionCollision
scalar LoRaNetworkTest.loRaNodes[0].LoRaNic.radio.energyConsumer totalEnergyConsumed 135.80441543605
statistic LoRaNetworkTest.loRaNodes[0].LoRaNic.radio symbolErrorRate:histogram
field count 0
field mean nan
field stddev nan
field min nan
field max nan
field sum 0
field sqrsum 0
attr source symbolErrorRate
attr title "Symbol error rate, histogram"
bin	-inf	0
bin	-0.5	0
bin	-0.46666666666667	0
bin	-0.43333333333333	0
bin	-0.4	0
bin	-0.36666666666667	0
bin	-0.33333333333333	0
bin	-0.3	0
bin	-0.26666666666667	0
bin	-0.23333333333333	0
bin	-0.2	0
bin	-0.16666666666667	0
bin	-0.13333333333333	0
bin	-0.1	0
bin	-0.066666666666667	0
bin	-0.033333333333333	0
bin	-6.9388939039072e-018	0
bin	0.033333333333333	0
bin	0.066666666666667	0
bin	0.1	0
bin	0.13333333333333	0
bin	0.16666666666667	0
bin	0.2	0
bin	0.23333333333333	0
bin	0.26666666666667	0
bin	0.3	0
bin	0.33333333333333	0
bin	0.36666666666667	0
bin	0.4	0
bin	0.43333333333333	0
bin	0.46666666666667	0
bin	0.5	0
statistic LoRaNetworkTest.loRaNodes[0].LoRaNic.radio bitErrorRate:histogram
field count 0
field mean nan
field stddev nan
field min nan
field max nan
field sum 0
field sqrsum 0
attr source bitErrorRate
attr title "Bit error rate, histogram"
bin	-inf	0
bin	-0.5	0
bin	-0.46666666666667	0
bin	-0.43333333333333	0
bin	-0.4	0
bin	-0.36666666666667	0
bin	-0.33333333333333	0
bin	-0.3	0
bin	-0.26666666666667	0
bin	-0.23333333333333	0
bin	-0.2	0
bin	-0.16666666666667	0
bin	-0.13333333333333	0
bin	-0.1	0
bin	-0.066666666666667	0
bin	-0.033333333333333	0
bin	-6.9388939039072e-018	0
bin	0.033333333333333	0
bin	0.066666666666667	0
bin	0.1	0
bin	0.13333333333333	0
bin	0.16666666666667	0
bin	0.2	0
bin	0.23333333333333	0
bin	0.26666666666667	0
bin	0.3	0
bin	0.33333333333333	0
bin	0.36666666666667	0
bin	0.4	0
bin	0.43333333333333	0
bin	0.46666666666667	0
bin	0.5	0
statistic LoRaNetworkTest.loRaNodes[0].LoRaNic.radio packetErrorRate:histogram
field count 0
field mean nan
field stddev nan
field min nan
field max nan
field sum 0
field sqrsum 0
attr source packetErrorRate
attr title "Packet error rate, histogram"
bin	-inf	0
bin	-0.5	0
bin	-0.46666666666667	0
bin	-0.43333333333333	0
bin	-0.4	0
bin	-0.36666666666667	0
bin	-0.33333333333333	0
bin	-0.3	0
bin	-0.26666666666667	0
bin	-0.23333333333333	0
bin	-0.2	0
bin	-0.16666666666667	0
bin	-0.13333333333333	0
bin	-0.1	0
bin	-0.066666666666667	0
bin	-0.033333333333333	0
bin	-6.9388939039072e-018	0
bin	0.033333333333333	0
bin	0.066666666666667	0
bin	0.1	0
bin	0.13333333333333	0
bin	0.16666666666667	0
bin	0.2	0
bin	0.23333333333333	0
bin	0.26666666666667	0
bin	0.3	0
bin	0.33333333333333	0
bin	0.36666666666667	0
bin	0.4	0
bin	0.43333333333333	0
bin	0.46666666666667	0
bin	0.5	0
statistic LoRaNetworkTest.loRaNodes[0].LoRaNic.radio minSNIR:histogram
field count 69
field mean 16.244523599006
field stddev 23.780155572484
field min 2.2476135015868
field max 118.29151133509
field sum 1120.8721283314
field sqrsum 56661.748075653
attr source minSNIR
attr title "Min SNIR, histogram"
bin	-inf	0
bin	-55.774335415167	0
bin	-48.0380755596	0
bin	-40.301815704033	0
bin	-32.565555848466	0
bin	-24.829295992898	0
bin	-17.093036137331	0
bin	-9.356776281764	0
bin	-1.6205164261968	30
bin	6.1157434293704	14
bin	13.852003284938	6
bin	21.588263140505	13
bin	29.324522996072	3
bin	37.060782851639	0
bin	44.797042707206	0
bin	52.533302562773	0
bin	60.269562418341	0
bin	68.005822273908	0
bin	75.742082129475	0
bin	83.478341985042	0
bin	91.214601840609	0
bin	98.950861696177	0
bin	106.68712155174	0
bin	114.42338140731	3
bin	122.15964126288	0
bin	129.89590111845	0
bin	137.63216097401	0
bin	145.36842082958	0
bin	153.10468068515	0
bin	160.84094054071	0
bin	168.57720039628	0
bin	176.31346025185	0
scalar LoRaNetworkTest.loRaNodes[0].LoRaNic.radio transmissionState:count 1592
attr interpolationmode sample-hold
attr source transmissionStateChanged
attr title "Radio transmission state, count"
scalar LoRaNetworkTest.loRaNodes[0].LoRaNic.radio receptionState:count 1880
attr interpolationmode sample-hold
attr source receptionStateChanged
attr title "Radio reception state, count"
scalar LoRaNetworkTest.loRaNodes[0].LoRaNic.radio radioMode:count 2535
attr interpolationmode sample-hold
attr source radioModeChanged
attr title "Radio mode, count"
scalar LoRaNetworkTest.loRaNodes[0].SimpleLoRaApp positionX 263.43048110604
scalar LoRaNetworkTest.loRaNodes[0].SimpleLoRaApp positionY 284.56541586667
scalar LoRaNetworkTest.loRaNodes[0].SimpleLoRaApp finalTP 14
scalar LoRaNetworkTest.loRaNodes[0].SimpleLoRaApp finalSF 12
scalar LoRaNetworkTest.loRaNodes[0].SimpleLoRaApp sentPackets 398
scalar LoRaNetworkTest.loRaNodes[0].SimpleLoRaApp receivedADRCommands 0
scalar LoRaNetworkTest.loRaNodes[0].SimpleLoRaApp LoRa_AppPacketSent:count 398
attr source LoRa_AppPacketSent
scalar LoRaNetworkTest.loRaNodes[1].LoRaNic.mac numRetry 0
scalar LoRaNetworkTest.loRaNodes[1].LoRaNic.mac numSentWithoutRetry 0
scalar LoRaNetworkTest.loRaNodes[1].LoRaNic.mac numGivenUp 0
scalar LoRaNetworkTest.loRaNodes[1].LoRaNic.mac numSent 725
scalar LoRaNetworkTest.loRaNodes[1].LoRaNic.mac numReceived 0
scalar LoRaNetworkTest.loRaNodes[1].LoRaNic.mac numSentBroadcast 0
scalar LoRaNetworkTest.loRaNodes[1].LoRaNic.mac numReceivedBroadcast 0
scalar LoRaNetworkTest.loRaNodes[1].LoRaNic.radio.transmitter LoRaTransmissionCreated:count 404
attr source LoRaTransmissionCreated
scalar LoRaNetworkTest.loRaNodes[1].LoRaNic.radio.receiver numCollisions 0
scalar LoRaNetworkTest.loRaNodes[1].LoRaNic.radio.receiver rcvBelowSensitivity 0
scalar LoRaNetworkTest.loRaNodes[1].LoRaNic.radio.receiver LoRaReceptionCollision:count 0
attr source LoRaReceptionCollision
scalar LoRaNetworkTest.loRaNodes[1].LoRaNic.radio.energyConsumer totalEnergyConsumed 138.02768009408
statistic LoRaNetworkTest.loRaNodes[1].LoRaNic.radio symbolErrorRate:histogram
field count 0
field mean nan
field stddev nan
field min nan
field max nan
field sum 0
field sqrsum 0
attr source symbolErrorRate
attr title "Symbol error rate, histogram"
bin	-inf	0
bin	-0.5	0
bin	-0.46666666666667	0
bin	-0.43333333333333	0
bin	-0.4	0
bin	-0.36666666666667	0
bin	-0.33333333333333	0
bin	-0.3	0
bin	-0.26666666666667	0
bin	-0.23333333333333	0
bin	-0.2	0
bin	-0.16666666666667	0
bin	-0.13333333333333	0
bin	-0.1	0
bin	-0.066666666666667	0
bin	-0.033333333333333	0
bin	-6.9388939039072e-018	0
bin	0.033333333333333	0
bin	0.066666666666667	0
bin	0.1	0
bin	0.13333333333333	0
bin	0.16666666666667	0
bin	0.2	0
bin	0.23333333333333	0
bin	0.26666666666667	0
bin	0.3	0
bin	0.33333333333333	0
bin	0.36666666666667	0
bin	0.4	0
bin	0.43333333333333	0
bin	0.46666666666667	0
bin	0.5	0
statistic LoRaNetworkTest.loRaNodes[1].LoRaNic.radio bitErrorRate:histogram
field count 0
field mean nan
field stddev nan
field min nan
field max nan
field sum 0
field sqrsum 0
attr source bitErrorRate
attr title "Bit error rate, histogram"
bin	-inf	0
bin	-0.5	0
bin	-0.46666666666667	0
bin	-0.43333333333333	0
bin	-0.4	0
bin	-0.36666666666667	0
bin	-0.33333333333333	0
bin	-0.3	0
bin	-0.26666666666667	0
bin	-0.23333333333333	0
bin	-0.2	0
bin	-0.16666666666667	0
bin	-0.13333333333333	0
bin	-0.1	0
bin	-0.066666666666667	0
bin	-0.033333333333333	0
bin	-6.9388939039072e-018	0
bin	0.033333333333333	0
bin	0.066666666666667	0
bin	0.1	0
bin	0.13333333333333	0
bin	0.16666666666667	0
bin	0.2	0
bin	0.23333333333333	0
bin	0.26666666666667	0
bin	0.3	0
bin	0.33333333333333	0
bin	0.36666666666667	0
bin	0.4	0
bin	0.43333333333333	0
bin	0.46666666666667	0
bin	0.5	0
statistic LoRaNetworkTest.loRaNodes[1].LoRaNic.radio packetErrorRate:histogram
field count 0
field mean nan
field stddev nan
field min nan
field max nan
field sum 0
field sqrsum 0
attr source packetErrorRate
attr title "Packet error rate, histogram"
bin	-inf	0
bin	-0.5	0
bin	-0.46666666666667	0
bin	-0.43333333333333	0
bin	-0.4	0
bin	-0.36666666666667	0
bin	-0.33333333333333	0
bin	-0.3	0
bin	-0.26666666666667	0
bin	-0.23333333333333	0
bin	-0.2	0
bin	-0.16666666666667	0
bin	-0.13333333333333	0
bin	-0.1	0
bin	-0.066666666666667	0
bin	-0.033333333333333	0
bin	-6.9388939039072e-018	0
bin	0.033333333333333	0
bin	0.066666666666667	0
bin	0.1	0
bin	0.13333333333333	0
bin	0.16666666666667	0
bin	0.2	0
bin	0.23333333333333	0
bin	0.26666666666667	0
bin	0.3	0
bin	0.33333333333333	0
bin	0.36666666666667	0
bin	0.4	0
bin	0.43333333333333	0
bin	0.46666666666667	0
bin	0.5	0
statistic LoRaNetworkTest.loRaNodes[1].LoRaNic.radio minSNIR:histogram
field count 59
field mean 15.66345499168
field stddev 33.780866487494
field min 1.4451269209375
field max 154.80808132196
field sum 924.14384450911
field sqrsum 80661.80807177
attr source minSNIR
attr title "Min SNIR, histogram"
bin	-inf	0
bin	-75.236350279575	0
bin	-65.012153319507	0
bin	-54.787956359439	0
bin	-44.56375939937	0
bin	-34.339562439302	0
bin	-24.115365479233	0
bin	-13.891168519165	0
bin	-3.6669715590967	37
bin	6.5572254009717	10
bin	16.78142236104	4
bin	27.005619321108	4
bin	37.229816281177	0
bin	47.454013241245	1
bin	57.678210201314	0
bin	67.902407161382	0
bin	78.12660412145	0
bin	88.350801081519	0
bin	98.574998041587	0
bin	108.79919500166	0
bin	119.02339196172	0
bin	129.24758892179	0
bin	139.47178588186	0
bin	149.69598284193	3
bin	159.920179802	0
bin	170.14437676207	0
bin	180.36857372213	0
bin	190.5927706822	0
bin	200.81696764227	0
bin	211.04116460234	0
bin	221.26536156241	0
bin	231.48955852248	0
scalar LoRaNetworkTest.loRaNodes[1].LoRaNic.radio transmissionState:count 1616
attr interpolationmode sample-hold
attr source transmissionStateChanged
attr title "Radio transmission state, count"
scalar LoRaNetworkTest.loRaNodes[1].LoRaNic.radio receptionState:count 1876
attr interpolationmode sample-hold
attr source receptionStateChanged
attr title "Radio reception state, count"
scalar LoRaNetworkTest.loRaNodes[1].LoRaNic.radio radioMode:count 2560
attr interpolationmode sample-hold
attr source radioModeChanged
attr title "Radio mode, count"
scalar LoRaNetworkTest.loRaNodes[1].SimpleLoRaApp positionX 405.24755716324
scalar LoRaNetworkTest.loRaNodes[1].SimpleLoRaApp positionY 289.32641778141
scalar LoRaNetworkTest.loRaNodes[1].SimpleLoRaApp finalTP 14
scalar LoRaNetworkTest.loRaNodes[1].SimpleLoRaApp finalSF 12
scalar LoRaNetworkTest.loRaNodes[1].SimpleLoRaApp sentPackets 404
scalar LoRaNetworkTest.loRaNodes[1].SimpleLoRaApp receivedADRCommands 0
scalar LoRaNetworkTest.loRaNodes[1].SimpleLoRaApp LoRa_AppPacketSent:count 404
attr source LoRa_AppPacketSent
scalar LoRaNetworkTest.loRaNodes[2].LoRaNic.mac numRetry 0
scalar LoRaNetworkTest.loRaNodes[2].LoRaNic.mac numSentWithoutRetry 0
scalar LoRaNetworkTest.loRaNodes[2].LoRaNic.mac numGivenUp 0
scalar LoRaNetworkTest.loRaNodes[2].LoRaNic.mac numSent 714
scalar LoRaNetworkTest.loRaNodes[2].LoRaNic.mac numReceived 0
scalar LoRaNetworkTest.loRaNodes[2].LoRaNic.mac numSentBroadcast 0
scalar LoRaNetworkTest.loRaNodes[2].LoRaNic.mac numReceivedBroadcast 0
scalar LoRaNetworkTest.loRaNodes[2].LoRaNic.radio.transmitter LoRaTransmissionCreated:count 399
attr source LoRaTransmissionCreated
scalar LoRaNetworkTest.loRaNodes[2].LoRaNic.radio.receiver numCollisions 0
scalar LoRaNetworkTest.loRaNodes[2].LoRaNic.radio.receiver rcvBelowSensitivity 0
scalar LoRaNetworkTest.loRaNodes[2].LoRaNic.radio.receiver LoRaReceptionCollision:count 0
attr source LoRaReceptionCollision
scalar LoRaNetworkTest.loRaNodes[2].LoRaNic.radio.energyConsumer totalEnergyConsumed 136.02669948877
statistic LoRaNetworkTest.loRaNodes[2].LoRaNic.radio symbolErrorRate:histogram
field count 0
field mean nan
field stddev nan
field min nan
field max nan
field sum 0
field sqrsum 0
attr source symbolErrorRate
attr title "Symbol error rate, histogram"
bin	-inf	0
bin	-0.5	0
bin	-0.46666666666667	0
bin	-0.43333333333333	0
bin	-0.4	0
bin	-0.36666666666667	0
bin	-0.33333333333333	0
bin	-0.3	0
bin	-0.26666666666667	0
bin	-0.23333333333333	0
bin	-0.2	0
bin	-0.16666666666667	0
bin	-0.13333333333333	0
bin	-0.1	0
bin	-0.066666666666667	0
bin	-0.033333333333333	0
bin	-6.9388939039072e-018	0
bin	0.033333333333333	0
bin	0.066666666666667	0
bin	0.1	0
bin	0.13333333333333	0
bin	0.16666666666667	0
bin	0.2	0
bin	0.23333333333333	0
bin	0.26666666666667	0
bin	0.3	0
bin	0.33333333333333	0
bin	0.36666666666667	0
bin	0.4	0
bin	0.43333333333333	0
bin	0.46666666666667	0
bin	0.5	0
statistic LoRaNetworkTest.loRaNodes[2].LoRaNic.radio bitErrorRate:histogram
field count 0
field mean nan
field stddev nan
field min nan
field max nan
field sum 0
field sqrsum 0
attr source bitErrorRate
attr title "Bit error rate, histogram"
bin	-inf	0
bin	-0.5	0
bin	-0.46666666666667	0
bin	-0.43333333333333	0
bin	-0.4	0
bin	-0.36666666666667	0
bin	-0.33333333333333	0
bin	-0.3	0
bin	-0.26666666666667	0
bin	-0.23333333333333	0
bin	-0.2	0
bin	-0.16666666666667	0
bin	-0.13333333333333	0
bin	-0.1	0
bin	-0.066666666666667	0
bin	-0.033333333333333	0
bin	-6.9388939039072e-018	0
bin	0.033333333333333	0
bin	0.066666666666667	0
bin	0.1	0
bin	0.13333333333333	0
bin	0.16666666666667	0
bin	0.2	0
bin	0.23333333333333	0
bin	0.26666666666667	0
bin	0.3	0
bin	0.33333333333333	0
bin	0.36666666666667	0
bin	0.4	0
bin	0.43333333333333	0
bin	0.46666666666667	0
bin	0.5	0
statistic LoRaNetworkTest.loRaNodes[2].LoRaNic.radio packetErrorRate:histogram
field count 0
field mean nan
field stddev nan
field min nan
field max nan
field sum 0
field sqrsum 0
attr source packetErrorRate
attr title "Packet error rate, histogram"
bin	-inf	0
bin	-0.5	0
bin	-0.46666666666667	0
bin	-0.43333333333333	0
bin	-0.4	0
bin	-0.36666666666667	0
bin	-0.33333333333333	0
bin	-0.3	0
bin	-0.26666666666667	0
bin	-0.23333333333333	0
bin	-0.2	0
bin	-0.16666666666667	0
bin	-0.13333333333333	0
bin	-0.1	0
bin	-0.066666666666667	0
bin	-0.033333333333333	0
bin	-6.9388939039072e-018	0
bin	0.033333333333333	0
bin	0.066666666666667	0
bin	0.1	0
bin	0.13333333333333	0
bin	0.16666666666667	0
bin	0.2	0
bin	0.23333333333333	0
bin	0.26666666666667	0
bin	0.3	0
bin	0.33333333333333	0
bin	0.36666666666667	0
bin	0.4	0
bin	0.43333333333333	0
bin	0.46666666666667	0
bin	0.5	0
statistic LoRaNetworkTest.loRaNodes[2].LoRaNic.radio minSNIR:histogram
field count 63
field mean 12.189073479485
field stddev 34.937926066146
field min 1.2124590966836
field max 200.95564166599
field sum 767.91162920755
field sqrsum 85040.969297977
attr source minSNIR
attr title "Min SNIR, histogram"
bin	-inf	0
bin	-98.659132187969	0
bin	-85.342920016682	0
bin	-72.026707845395	0
bin	-58.710495674108	0
bin	-45.394283502821	0
bin	-32.078071331534	0
bin	-18.761859160247	0
bin	-5.4456469889599	48
bin	7.8705651823271	11
bin	21.186777353614	2
bin	34.502989524901	0
bin	47.819201696188	0
bin	61.135413867475	0
bin	74.451626038762	0
bin	87.767838210049	0
bin	101.08405038134	0
bin	114.40026255262	0
bin	127.71647472391	0
bin	141.0326868952	0
bin	154.34889906648	0
bin	167.66511123777	0
bin	180.98132340906	0
bin	194.29753558035	2
bin	207.61374775163	0
bin	220.92995992292	0
bin	234.24617209421	0
bin	247.56238426549	0
bin	260.87859643678	0
bin	274.19480860807	0
bin	287.51102077935	0
bin	300.82723295064	0
scalar LoRaNetworkTest.loRaNodes[2].LoRaNic.radio transmissionState:count 1596
attr interpolationmode sample-hold
attr source transmissionStateChanged
attr title "Radio transmission state, count"
scalar LoRaNetworkTest.loRaNodes[2].LoRaNic.radio receptionState:count 1860
attr interpolationmode sample-hold
attr source receptionStateChanged
attr title "Radio reception state, count"
scalar LoRaNetworkTest.loRaNodes[2].LoRaNic.radio radioMode:count 2529
attr interpolationmode sample-hold
attr source radioModeChanged
attr title "Radio mode, count"
scalar LoRaNetworkTest.loRaNodes[2].SimpleLoRaApp positionX 261.54392514378
scalar LoRaNetworkTest.loRaNodes[2].SimpleLoRaApp positionY 406.68083388358
scalar LoRaNetworkTest.loRaNodes[2].SimpleLoRaApp finalTP 14
scalar LoRaNetworkTest.loRaNodes[2].SimpleLoRaApp finalSF 12
scalar LoRaNetworkTest.loRaNodes[2].SimpleLoRaApp sentPackets 399
scalar LoRaNetworkTest.loRaNodes[2].SimpleLoRaApp receivedADRCommands 0
scalar LoRaNetworkTest.loRaNodes[2].SimpleLoRaApp LoRa_AppPacketSent:count 399
attr source LoRa_AppPacketSent
scalar LoRaNetworkTest.loRaNodes[3].LoRaNic.mac numRetry 0
scalar LoRaNetworkTest.loRaNodes[3].LoRaNic.mac numSentWithoutRetry 0
scalar LoRaNetworkTest.loRaNodes[3].LoRaNic.mac numGivenUp 0
scalar LoRaNetworkTest.loRaNodes[3].LoRaNic.mac numSent 723
scalar LoRaNetworkTest.loRaNodes[3].LoRaNic.mac numReceived 0
scalar LoRaNetworkTest.loRaNodes[3].LoRaNic.mac numSentBroadcast 0
scalar LoRaNetworkTest.loRaNodes[3].LoRaNic.mac numReceivedBroadcast 0
scalar LoRaNetworkTest.loRaNodes[3].LoRaNic.radio.transmitter LoRaTransmissionCreated:count 404
attr source LoRaTransmissionCreated
scalar LoRaNetworkTest.loRaNodes[3].LoRaNic.radio.receiver numCollisions 0
scalar LoRaNetworkTest.loRaNodes[3].LoRaNic.radio.receiver rcvBelowSensitivity 0
scalar LoRaNetworkTest.loRaNodes[3].LoRaNic.radio.receiver LoRaReceptionCollision:count 0
attr source LoRaReceptionCollision
scalar LoRaNetworkTest.loRaNodes[3].LoRaNic.radio.energyConsumer totalEnergyConsumed 137.67213866545
statistic LoRaNetworkTest.loRaNodes[3].LoRaNic.radio symbolErrorRate:histogram
field count 0
field mean nan
field stddev nan
field min nan
field max nan
field sum 0
field sqrsum 0
attr source symbolErrorRate
attr title "Symbol error rate, histogram"
bin	-inf	0
bin	-0.5	0
bin	-0.46666666666667	0
bin	-0.43333333333333	0
bin	-0.4	0
bin	-0.36666666666667	0
bin	-0.33333333333333	0
bin	-0.3	0
bin	-0.26666666666667	0
bin	-0.23333333333333	0
bin	-0.2	0
bin	-0.16666666666667	0
bin	-0.13333333333333	0
bin	-0.1	0
bin	-0.066666666666667	0
bin	-0.033333333333333	0
bin	-6.9388939039072e-018	0
bin	0.033333333333333	0
bin	0.066666666666667	0
bin	0.1	0
bin	0.13333333333333	0
bin	0.16666666666667	0
bin	0.2	0
bin	0.23333333333333	0
bin	0.26666666666667	0
bin	0.3	0
bin	0.33333333333333	0
bin	0.36666666666667	0
bin	0.4	0
bin	0.43333333333333	0
bin	0.46666666666667	0
bin	0.5	0
statistic LoRaNetworkTest.loRaNodes[3].LoRaNic.radio bitErrorRate:histogram
field count 0
field mean nan
field stddev nan
field min nan
field max nan
field sum 0
field sqrsum 0
attr source bitErrorRate
attr title "Bit error rate, histogram"
bin	-inf	0
bin	-0.5	0
bin	-0.46666666666667	0
bin	-0.43333333333333	0
bin	-0.4	0
bin	-0.36666666666667	0
bin	-0.33333333333333	0
bin	-0.3	0
bin	-0.26666666666667	0
bin	-0.23333333333333	0
bin	-0.2	0
bin	-0.16666666666667	0
bin	-0.13333333333333	0
bin	-0.1	0
bin	-0.066666666666667	0
bin	-0.033333333333333	0
bin	-6.9388939039072e-018	0
bin	0.033333333333333	0
bin	0.066666666666667	0
bin	0.1	0
bin	0.13333333333333	0
bin	0.16666666666667	0
bin	0.2	0
bin	0.23333333333333	0
bin	0.26666666666667	0
bin	0.3	0
bin	0.33333333333333	0
bin	0.36666666666667	0
bin	0.4	0
bin	0.43333333333333	0
bin	0.46666666666667	0
bin	0.5	0
statistic LoRaNetworkTest.loRaNodes[3].LoRaNic.radio packetErrorRate:histogram
field count 0
field mean nan
field stddev nan
field min nan
field max nan
field sum 0
field sqrsum 0
attr source packetErrorRate
attr title "Packet error rate, histogram"
bin	-inf	0
bin	-0.5	0
bin	-0.46666666666667	0
bin	-0.43333333333333	0
bin	-0.4	0
bin	-0.36666666666667	0
bin	-0.33333333333333	0
bin	-0.3	0
bin	-0.26666666666667	0
bin	-0.23333333333333	0
bin	-0.2	0
bin	-0.16666666666667	0
bin	-0.13333333333333	0
bin	-0.1	0
bin	-0.066666666666667	0
bin	-0.033333333333333	0
bin	-6.9388939039072e-018	0
bin	0.033333333333333	0
bin	0.066666666666667	0
bin	0.1	0
bin	0.13333333333333	0
bin	0.16666666666667	0
bin	0.2	0
bin	0.23333333333333	0
bin	0.26666666666667	0
bin	0.3	0
bin	0.33333333333333	0
bin	0.36666666666667	0
bin	0.4	0
bin	0.43333333333333	0
bin	0.46666666666667	0
bin	0.5	0
statistic LoRaNetworkTest.loRaNodes[3].LoRaNic.radio minSNIR:histogram
field count 65
field mean 19.727908373759
field stddev 32.566711197773
field min 2.0121514337601
field max 118.29151133509
field sum 1282.3140442943
field sqrsum 93175.177379529
attr source minSNIR
attr title "Min SNIR, histogram"
bin	-inf	0
bin	-56.127528516907	0
bin	-48.375571190152	0
bin	-40.623613863396	0
bin	-32.87165653664	0
bin	-25.119699209885	0
bin	-17.367741883129	0
bin	-9.6157845563734	0
bin	-1.8638272296178	23
bin	5.8881300971379	22
bin	13.640087423893	10
bin	21.392044750649	1
bin	29.144002077405	3
bin	36.89595940416	0
bin	44.647916730916	0
bin	52.399874057672	0
bin	60.151831384427	0
bin	67.903788711183	0
bin	75.655746037939	0
bin	83.407703364694	0
bin	91.15966069145	0
bin	98.911618018205	0
bin	106.66357534496	0
bin	114.41553267172	6
bin	122.16748999847	0
bin	129.91944732523	0
bin	137.67140465198	0
bin	145.42336197874	0
bin	153.17531930549	0
bin	160.92727663225	0
bin	168.67923395901	0
bin	176.43119128576	0
scalar LoRaNetworkTest.loRaNodes[3].LoRaNic.radio transmissionState:count 1614
attr interpolationmode sample-hold
attr source transmissionStateChanged
attr title "Radio transmission state, count"
scalar LoRaNetworkTest.loRaNodes[3].LoRaNic.radio receptionState:count 1876
attr interpolationmode sample-hold
attr source receptionStateChanged
attr title "Radio reception state, count"
scalar LoRaNetworkTest.loRaNodes[3].LoRaNic.radio radioMode:count 2552
attr interpolationmode sample-hold
attr source radioModeChanged
attr title "Radio mode, count"
scalar LoRaNetworkTest.loRaNodes[3].SimpleLoRaApp positionX 299.31057427078
scalar LoRaNetworkTest.loRaNodes[3].SimpleLoRaApp positionY 310.02917524427
scalar LoRaNetworkTest.loRaNodes[3].SimpleLoRaApp finalTP 14
scalar LoRaNetworkTest.loRaNodes[3].SimpleLoRaApp finalSF 12
scalar LoRaNetworkTest.loRaNodes[3].SimpleLoRaApp sentPackets 404
scalar LoRaNetworkTest.loRaNodes[3].SimpleLoRaApp receivedADRCommands 0
scalar LoRaNetworkTest.loRaNodes[3].SimpleLoRaApp LoRa_AppPacketSent:count 404
attr source LoRa_AppPacketSent
scalar LoRaNetworkTest.loRaNodes[4].LoRaNic.mac numRetry 0
scalar LoRaNetworkTest.loRaNodes[4].LoRaNic.mac numSentWithoutRetry 0
scalar LoRaNetworkTest.loRaNodes[4].LoRaNic.mac numGivenUp 0
scalar LoRaNetworkTest.loRaNodes[4].LoRaNic.mac numSent 719
scalar LoRaNetworkTest.loRaNodes[4].LoRaNic.mac numReceived 0
scalar LoRaNetworkTest.loRaNodes[4].LoRaNic.mac numSentBroadcast 0
scalar LoRaNetworkTest.loRaNodes[4].LoRaNic.mac numReceivedBroadcast 0
scalar LoRaNetworkTest.loRaNodes[4].LoRaNic.radio.transmitter LoRaTransmissionCreated:count 396
attr source LoRaTransmissionCreated
scalar LoRaNetworkTest.loRaNodes[4].LoRaNic.radio.receiver numCollisions 0
scalar LoRaNetworkTest.loRaNodes[4].LoRaNic.radio.receiver rcvBelowSensitivity 0
scalar LoRaNetworkTest.loRaNodes[4].LoRaNic.radio.receiver LoRaReceptionCollision:count 0
attr source LoRaReceptionCollision
scalar LoRaNetworkTest.loRaNodes[4].LoRaNic.radio.energyConsumer totalEnergyConsumed 137.14713710039
statistic LoRaNetworkTest.loRaNodes[4].LoRaNic.radio symbolErrorRate:histogram
field count 0
field mean nan
field stddev nan
field min nan
field max nan
field sum 0
field sqrsum 0
attr source symbolErrorRate
attr title "Symbol error rate, histogram"
bin	-inf	0
bin	-0.5	0
bin	-0.46666666666667	0
bin	-0.43333333333333	0
bin	-0.4	0
bin	-0.36666666666667	0
bin	-0.33333333333333	0
bin	-0.3	0
bin	-0.26666666666667	0
bin	-0.23333333333333	0
bin	-0.2	0
bin	-0.16666666666667	0
bin	-0.13333333333333	0
bin	-0.1	0
bin	-0.066666666666667	0
bin	-0.033333333333333	0
bin	-6.9388939039072e-018	0
bin	0.033333333333333	0
bin	0.066666666666667	0
bin	0.1	0
bin	0.13333333333333	0
bin	0.16666666666667	0
bin	0.2	0
bin	0.23333333333333	0
bin	0.26666666666667	0
bin	0.3	0
bin	0.33333333333333	0
bin	0.36666666666667	0
bin	0.4	0
bin	0.43333333333333	0
bin	0.46666666666667	0
bin	0.5	0
statistic LoRaNetworkTest.loRaNodes[4].LoRaNic.radio bitErrorRate:histogram
field count 0
field mean nan
field stddev nan
field min nan
field max nan
field sum 0
field sqrsum 0
attr source bitErrorRate
attr title "Bit error rate, histogram"
bin	-inf	0
bin	-0.5	0
bin	-0.46666666666667	0
bin	-0.43333333333333	0
bin	-0.4	0
bin	-0.36666666666667	0
bin	-0.33333333333333	0
bin	-0.3	0
bin	-0.26666666666667	0
bin	-0.23333333333333	0
bin	-0.2	0
bin	-0.16666666666667	0
bin	-0.13333333333333	0
bin	-0.1	0
bin	-0.066666666666667	0
bin	-0.033333333333333	0
bin	-6.9388939039072e-018	0
bin	0.033333333333333	0
bin	0.066666666666667	0
bin	0.1	0
bin	0.13333333333333	0
bin	0.16666666666667	0
bin	0.2	0
bin	0.23333333333333	0
bin	0.26666666666667	0
bin	0.3	0
bin	0.33333333333333	0
bin	0.36666666666667	0
bin	0.4	0
bin	0.43333333333333	0
bin	0.46666666666667	0
bin	0.5	0
statistic LoRaNetworkTest.loRaNodes[4].LoRaNic.radio packetErrorRate:histogram
field count 0
field mean nan
field stddev nan
field min nan
field max nan
field sum 0
field sqrsum 0
attr source packetErrorRate
attr title "Packet error rate, histogram"
bin	-inf	0
bin	-0.5	0
bin	-0.46666666666667	0
bin	-0.43333333333333	0
bin	-0.4	0
bin	-0.36666666666667	0
bin	-0.33333333333333	0
bin	-0.3	0
bin	-0.26666666666667	0
bin	-0.23333333333333	0
bin	-0.2	0
bin	-0.16666666666667	0
bin	-0.13333333333333	0
bin	-0.1	0
bin	-0.066666666666667	0
bin	-0.033333333333333	0
bin	-6.9388939039072e-018	0
bin	0.033333333333333	0
bin	0.066666666666667	0
bin	0.1	0
bin	0.13333333333333	0
bin	0.16666666666667	0
bin	0.2	0
bin	0.23333333333333	0
bin	0.26666666666667	0
bin	0.3	0
bin	0.33333333333333	0
bin	0.36666666666667	0
bin	0.4	0
bin	0.43333333333333	0
bin	0.46666666666667	0
bin	0.5	0
statistic LoRaNetworkTest.loRaNodes[4].LoRaNic.radio minSNIR:histogram
field count 71
field mean 10.327614506943
field stddev 9.8666388572107
field min 1.2829992927034
field max 36.403253507015
field sum 733.26062999293
field sqrsum 14387.372483388
attr source minSNIR
attr title "Min SNIR, histogram"
bin	-inf	0
bin	-16.277127814452	0
bin	-13.935777533498	0
bin	-11.594427252544	0
bin	-9.2530769715901	0
bin	-6.911726690636	0
bin	-4.5703764096819	0
bin	-2.2290261287278	0
bin	0.1123241522263	12
bin	2.4536744331804	17
bin	4.7950247141345	5
bin	7.1363749950886	17
bin	9.4777252760427	3
bin	11.819075556997	0
bin	14.160425837951	0
bin	16.501776118905	0
bin	18.843126399859	4
bin	21.184476680813	4
bin	23.525826961767	0
bin	25.867177242721	5
bin	28.208527523676	0
bin	30.54987780463	0
bin	32.891228085584	0
bin	35.232578366538	4
bin	37.573928647492	0
bin	39.915278928446	0
bin	42.2566292094	0
bin	44.597979490354	0
bin	46.939329771308	0
bin	49.280680052262	0
bin	51.622030333217	0
bin	53.963380614171	0
scalar LoRaNetworkTest.loRaNodes[4].LoRaNic.radio transmissionState:count 1584
attr interpolationmode sample-hold
attr source transmissionStateChanged
attr title "Radio transmission state, count"
scalar LoRaNetworkTest.loRaNodes[4].LoRaNic.radio receptionState:count 1868
attr interpolationmode sample-hold
attr source receptionStateChanged
attr title "Radio reception state, count"
scalar LoRaNetworkTest.loRaNodes[4].LoRaNic.radio radioMode:count 2518
attr interpolationmode sample-hold
attr source radioModeChanged
attr title "Radio mode, count"
scalar LoRaNetworkTest.loRaNodes[4].SimpleLoRaApp positionX 210.04186078906
scalar LoRaNetworkTest.loRaNodes[4].SimpleLoRaApp positionY 142.81661052257
scalar LoRaNetworkTest.loRaNodes[4].SimpleLoRaApp finalTP 14
scalar LoRaNetworkTest.loRaNodes[4].SimpleLoRaApp finalSF 12
scalar LoRaNetworkTest.loRaNodes[4].SimpleLoRaApp sentPackets 396
scalar LoRaNetworkTest.loRaNodes[4].SimpleLoRaApp receivedADRCommands 0
scalar LoRaNetworkTest.loRaNodes[4].SimpleLoRaApp LoRa_AppPacketSent:count 396
attr source LoRa_AppPacketSent
scalar LoRaNetworkTest.loRaNodes[5].LoRaNic.mac numRetry 0
scalar LoRaNetworkTest.loRaNodes[5].LoRaNic.mac numSentWithoutRetry 0
scalar LoRaNetworkTest.loRaNodes[5].LoRaNic.mac numGivenUp 0
scalar LoRaNetworkTest.loRaNodes[5].LoRaNic.mac numSent 703
scalar LoRaNetworkTest.loRaNodes[5].LoRaNic.mac numReceived 0
scalar LoRaNetworkTest.loRaNodes[5].LoRaNic.mac numSentBroadcast 0
scalar LoRaNetworkTest.loRaNodes[5].LoRaNic.mac numReceivedBroadcast 0
scalar LoRaNetworkTest.loRaNodes[5].LoRaNic.radio.transmitter LoRaTransmissionCreated:count 385
attr source LoRaTransmissionCreated
scalar LoRaNetworkTest.loRaNodes[5].LoRaNic.radio.receiver numCollisions 0
scalar LoRaNetworkTest.loRaNodes[5].LoRaNic.radio.receiver rcvBelowSensitivity 36
scalar LoRaNetworkTest.loRaNodes[5].LoRaNic.radio.receiver LoRaReceptionCollision:count 0
attr source LoRaReceptionCollision
scalar LoRaNetworkTest.loRaNodes[5].LoRaNic.radio.energyConsumer totalEnergyConsumed 134.16865451994
statistic LoRaNetworkTest.loRaNodes[5].LoRaNic.radio symbolErrorRate:histogram
field count 0
field mean nan
field stddev nan
field min nan
field max nan
field sum 0
field sqrsum 0
attr source symbolErrorRate
attr title "Symbol error rate, histogram"
bin	-inf	0
bin	-0.5	0
bin	-0.46666666666667	0
bin	-0.43333333333333	0
bin	-0.4	0
bin	-0.36666666666667	0
bin	-0.33333333333333	0
bin	-0.3	0
bin	-0.26666666666667	0
bin	-0.23333333333333	0
bin	-0.2	0
bin	-0.16666666666667	0
bin	-0.13333333333333	0
bin	-0.1	0
bin	-0.066666666666667	0
bin	-0.033333333333333	0
bin	-6.9388939039072e-018	0
bin	0.033333333333333	0
bin	0.066666666666667	0
bin	0.1	0
bin	0.13333333333333	0
bin	0.16666666666667	0
bin	0.2	0
bin	0.23333333333333	0
bin	0.26666666666667	0
bin	0.3	0
bin	0.33333333333333	0
bin	0.36666666666667	0
bin	0.4	0
bin	0.43333333333333	0
bin	0.46666666666667	0
bin	0.5	0
statistic LoRaNetworkTest.loRaNodes[5].LoRaNic.radio bitErrorRate:histogram
field count 0
field mean nan
field stddev nan
field min nan
field max nan
field sum 0
field sqrsum 0
attr source bitErrorRate
attr title "Bit error rate, histogram"
bin	-inf	0
bin	-0.5	0
bin	-0.46666666666667	0
bin	-0.43333333333333	0
bin	-0.4	0
bin	-0.36666666666667	0
bin	-0.33333333333333	0
bin	-0.3	0
bin	-0.26666666666667	0
bin	-0.23333333333333	0
bin	-0.2	0
bin	-0.16666666666667	0
bin	-0.13333333333333	0
bin	-0.1	0
bin	-0.066666666666667	0
bin	-0.033333333333333	0
bin	-6.9388939039072e-018	0
bin	0.033333333333333	0
bin	0.066666666666667	0
bin	0.1	0
bin	0.13333333333333	0
bin	0.16666666666667	0
bin	0.2	0
bin	0.23333333333333	0
bin	0.26666666666667	0
bin	0.3	0
bin	0.33333333333333	0
bin	0.36666666666667	0
bin	0.4	0
bin	0.43333333333333	0
bin	0.46666666666667	0
bin	0.5	0
statistic LoRaNetworkTest.loRaNodes[5].LoRaNic.radio packetErrorRate:histogram
field count 0
field mean nan
field stddev nan
field min nan
field max nan
field sum 0
field sqrsum 0
attr source packetErrorRate
attr title "Packet error rate, histogram"
bin	-inf	0
bin	-0.5	0
bin	-0.46666666666667	0
bin	-0.43333333333333	0
bin	-0.4	0
bin	-0.36666666666667	0
bin	-0.33333333333333	0
bin	-0.3	0
bin	-0.26666666666667	0
bin	-0.23333333333333	0
bin	-0.2	0
bin	-0.16666666666667	0
bin	-0.13333333333333	0
bin	-0.1	0
bin	-0.066666666666667	0
bin	-0.033333333333333	0
bin	-6.9388939039072e-018	0
bin	0.033333333333333	0
bin	0.066666666666667	0
bin	0.1	0
bin	0.13333333333333	0
bin	0.16666666666667	0
bin	0.2	0
bin	0.23333333333333	0
bin	0.26666666666667	0
bin	0.3	0
bin	0.33333333333333	0
bin	0.36666666666667	0
bin	0.4	0
bin	0.43333333333333	0
bin	0.46666666666667	0
bin	0.5	0
statistic LoRaNetworkTest.loRaNodes[5].LoRaNic.radio minSNIR:histogram
field count 50
field mean 3.859273141618
field stddev 4.2086080270951
field min 1.0924800519317
field max 14.589511167646
field sum 192.9636570809
field sqrsum 1612.6061538414
attr source minSNIR
attr title "Min SNIR, histogram"
bin	-inf	0
bin	-5.6560355059255	0
bin	-4.7562334315445	0
bin	-3.8564313571636	0
bin	-2.9566292827826	0
bin	-2.0568272084017	0
bin	-1.1570251340207	0
bin	-0.25722305963977	0
bin	0.64257901474119	24
bin	1.5423810891221	4
bin	2.4421831635031	5
bin	3.3419852378841	6
bin	4.241787312265	1
bin	5.141589386646	0
bin	6.0413914610269	0
bin	6.9411935354079	2
bin	7.8409956097888	0
bin	8.7407976841698	3
bin	9.6405997585507	0
bin	10.540401832932	0
bin	11.440203907313	0
bin	12.340005981694	0
bin	13.239808056075	0
bin	14.139610130456	5
bin	15.039412204836	0
bin	15.939214279217	0
bin	16.839016353598	0
bin	17.738818427979	0
bin	18.63862050236	0
bin	19.538422576741	0
bin	20.438224651122	0
bin	21.338026725503	0
scalar LoRaNetworkTest.loRaNodes[5].LoRaNic.radio transmissionState:count 1540
attr interpolationmode sample-hold
attr source transmissionStateChanged
attr title "Radio transmission state, count"
scalar LoRaNetworkTest.loRaNodes[5].LoRaNic.radio receptionState:count 1872
attr interpolationmode sample-hold
attr source receptionStateChanged
attr title "Radio reception state, count"
scalar LoRaNetworkTest.loRaNodes[5].LoRaNic.radio radioMode:count 2509
attr interpolationmode sample-hold
attr source radioModeChanged
attr title "Radio mode, count"
scalar LoRaNetworkTest.loRaNodes[5].SimpleLoRaApp positionX 27.222228348255
scalar LoRaNetworkTest.loRaNodes[5].SimpleLoRaApp positionY 462.55812674761
scalar LoRaNetworkTest.loRaNodes[5].SimpleLoRaApp finalTP 14
scalar LoRaNetworkTest.loRaNodes[5].SimpleLoRaApp finalSF 12
scalar LoRaNetworkTest.loRaNodes[5].SimpleLoRaApp sentPackets 385
scalar LoRaNetworkTest.loRaNodes[5].SimpleLoRaApp receivedADRCommands 0
scalar LoRaNetworkTest.loRaNodes[5].SimpleLoRaApp LoRa_AppPacketSent:count 385
attr source LoRa_AppPacketSent
scalar LoRaNetworkTest.loRaNodes[6].LoRaNic.mac numRetry 0
scalar LoRaNetworkTest.loRaNodes[6].LoRaNic.mac numSentWithoutRetry 0
scalar LoRaNetworkTest.loRaNodes[6].LoRaNic.mac numGivenUp 0
scalar LoRaNetworkTest.loRaNodes[6].LoRaNic.mac numSent 722
scalar LoRaNetworkTest.loRaNodes[6].LoRaNic.mac numReceived 0
scalar LoRaNetworkTest.loRaNodes[6].LoRaNic.mac numSentBroadcast 0
scalar LoRaNetworkTest.loRaNodes[6].LoRaNic.mac numReceivedBroadcast 0
scalar LoRaNetworkTest.loRaNodes[6].LoRaNic.radio.transmitter LoRaTransmissionCreated:count 400
attr source LoRaTransmissionCreated
scalar LoRaNetworkTest.loRaNodes[6].LoRaNic.radio.receiver numCollisions 0
scalar LoRaNetworkTest.loRaNodes[6].LoRaNic.radio.receiver rcvBelowSensitivity 0
scalar LoRaNetworkTest.loRaNodes[6].LoRaNic.radio.receiver LoRaReceptionCollision:count 0
attr source LoRaReceptionCollision
scalar LoRaNetworkTest.loRaNodes[6].LoRaNic.radio.energyConsumer totalEnergyConsumed 137.33963544262
statistic LoRaNetworkTest.loRaNodes[6].LoRaNic.radio symbolErrorRate:histogram
field count 0
field mean nan
field stddev nan
field min nan
field max nan
field sum 0
field sqrsum 0
attr source symbolErrorRate
attr title "Symbol error rate, histogram"
bin	-inf	0
bin	-0.5	0
bin	-0.46666666666667	0
bin	-0.43333333333333	0
bin	-0.4	0
bin	-0.36666666666667	0
bin	-0.33333333333333	0
bin	-0.3	0
bin	-0.26666666666667	0
bin	-0.23333333333333	0
bin	-0.2	0
bin	-0.16666666666667	0
bin	-0.13333333333333	0
bin	-0.1	0
bin	-0.066666666666667	0
bin	-0.033333333333333	0
bin	-6.9388939039072e-018	0
bin	0.033333333333333	0
bin	0.066666666666667	0
bin	0.1	0
bin	0.13333333333333	0
bin	0.16666666666667	0
bin	0.2	0
bin	0.23333333333333	0
bin	0.26666666666667	0
bin	0.3	0
bin	0.33333333333333	0
bin	0.36666666666667	0
bin	0.4	0
bin	0.43333333333333	0
bin	0.46666666666667	0
bin	0.5	0
statistic LoRaNetworkTest.loRaNodes[6].LoRaNic.radio bitErrorRate:histogram
field count 0
field mean nan
field stddev nan
field min nan
field max nan
field sum 0
field sqrsum 0
attr source bitErrorRate
attr title "Bit error rate, histogram"
bin	-inf	0
bin	-0.5	0
bin	-0.46666666666667	0
bin	-0.43333333333333	0
bin	-0.4	0
bin	-0.36666666666667	0
bin	-0.33333333333333	0
bin	-0.3	0
bin	-0.26666666666667	0
bin	-0.23333333333333	0
bin	-0.2	0
bin	-0.16666666666667	0
bin	-0.13333333333333	0
bin	-0.1	0
bin	-0.066666666666667	0
bin	-0.033333333333333	0
bin	-6.9388939039072e-018	0
bin	0.033333333333333	0
bin	0.066666666666667	0
bin	0.1	0
bin	0.13333333333333	0
bin	0.16666666666667	0
bin	0.2	0
bin	0.23333333333333	0
bin	0.26666666666667	0
bin	0.3	0
bin	0.33333333333333	0
bin	0.36666666666667	0
bin	0.4	0
bin	0.43333333333333	0
bin	0.46666666666667	0
bin	0.5	0
statistic LoRaNetworkTest.loRaNodes[6].LoRaNic.radio packetErrorRate:histogram
field count 0
field mean nan
field stddev nan
field min nan
field max nan
field sum 0
field sqrsum 0
attr source packetErrorRate
attr title "Packet error rate, histogram"
bin	-inf	0
bin	-0.5	0
bin	-0.46666666666667	0
bin	-0.43333333333333	0
bin	-0.4	0
bin	-0.36666666666667	0
bin	-0.33333333333333	0
bin	-0.3	0
bin	-0.26666666666667	0
bin	-0.23333333333333	0
bin	-0.2	0
bin	-0.16666666666667	0
bin	-0.13333333333333	0
bin	-0.1	0
bin	-0.066666666666667	0
bin	-0.033333333333333	0
bin	-6.9388939039072e-018	0
bin	0.033333333333333	0
bin	0.066666666666667	0
bin	0.1	0
bin	0.13333333333333	0
bin	0.16666666666667	0
bin	0.2	0
bin	0.23333333333333	0
bin	0.26666666666667	0
bin	0.3	0
bin	0.33333333333333	0
bin	0.36666666666667	0
bin	0.4	0
bin	0.43333333333333	0
bin	0.46666666666667	0
bin	0.5	0
statistic LoRaNetworkTest.loRaNodes[6].LoRaNic.radio minSNIR:histogram
field count 54
field mean 9.5528222515842
field stddev 9.1944970397019
field min 1.7320152848827
field max 41.303328345461
field sum 515.85240158555
field sqrsum 9408.4014184931
attr source minSNIR
attr title "Min SNIR, histogram"
bin	-inf	0
bin	-18.053641245406	0
bin	-15.415553708034	0
bin	-12.777466170663	0
bin	-10.139378633291	0
bin	-7.5012910959188	0
bin	-4.863203558547	0
bin	-2.2251160211751	0
bin	0.41297151619676	9
bin	3.0510590535686	12
bin	5.6891465909405	14
bin	8.3272341283124	9
bin	10.965321665684	0
bin	13.603409203056	0
bin	16.241496740428	2
bin	18.8795842778	0
bin	21.517671815172	3
bin	24.155759352544	3
bin	26.793846889915	0
bin	29.431934427287	0
bin	32.070021964659	0
bin	34.708109502031	0
bin	37.346197039403	0
bin	39.984284576775	2
bin	42.622372114147	0
bin	45.260459651519	0
bin	47.89854718889	0
bin	50.536634726262	0
bin	53.174722263634	0
bin	55.812809801006	0
bin	58.450897338378	0
bin	61.08898487575	0
scalar LoRaNetworkTest.loRaNodes[6].LoRaNic.radio transmissionState:count 1600
attr interpolationmode sample-hold
attr source transmissionStateChanged
attr title "Radio transmission state, count"
scalar LoRaNetworkTest.loRaNodes[6].LoRaNic.radio receptionState:count 1832
attr interpolationmode sample-hold
attr source receptionStateChanged
attr title "Radio reception state, count"
scalar LoRaNetworkTest.loRaNodes[6].LoRaNic.radio radioMode:count 2520
attr interpolationmode sample-hold
attr source radioModeChanged
attr title "Radio mode, count"
scalar LoRaNetworkTest.loRaNodes[6].SimpleLoRaApp positionX 184.05193023384
scalar LoRaNetworkTest.loRaNodes[6].SimpleLoRaApp positionY 229.27925359458
scalar LoRaNetworkTest.loRaNodes[6].SimpleLoRaApp finalTP 14
scalar LoRaNetworkTest.loRaNodes[6].SimpleLoRaApp finalSF 12
scalar LoRaNetworkTest.loRaNodes[6].SimpleLoRaApp sentPackets 400
scalar LoRaNetworkTest.loRaNodes[6].SimpleLoRaApp receivedADRCommands 0
scalar LoRaNetworkTest.loRaNodes[6].SimpleLoRaApp LoRa_AppPacketSent:count 400
attr source LoRa_AppPacketSent
scalar LoRaNetworkTest.loRaNodes[7].LoRaNic.mac numRetry 0
scalar LoRaNetworkTest.loRaNodes[7].LoRaNic.mac numSentWithoutRetry 0
scalar LoRaNetworkTest.loRaNodes[7].LoRaNic.mac numGivenUp 0
scalar LoRaNetworkTest.loRaNodes[7].LoRaNic.mac numSent 717
scalar LoRaNetworkTest.loRaNodes[7].LoRaNic.mac numReceived 0
scalar LoRaNetworkTest.loRaNodes[7].LoRaNic.mac numSentBroadcast 0
scalar LoRaNetworkTest.loRaNodes[7].LoRaNic.mac numReceivedBroadcast 0
scalar LoRaNetworkTest.loRaNodes[7].LoRaNic.radio.transmitter LoRaTransmissionCreated:count 403
attr source LoRaTransmissionCreated
scalar LoRaNetworkTest.loRaNodes[7].LoRaNic.radio.receiver numCollisions 0
scalar LoRaNetworkTest.loRaNodes[7].LoRaNic.radio.receiver rcvBelowSensitivity 0
scalar LoRaNetworkTest.loRaNodes[7].LoRaNic.radio.receiver LoRaReceptionCollision:count 0
attr source LoRaReceptionCollision
scalar LoRaNetworkTest.loRaNodes[7].LoRaNic.radio.energyConsumer totalEnergyConsumed 136.76840061106
statistic LoRaNetworkTest.loRaNodes[7].LoRaNic.radio symbolErrorRate:histogram
field count 0
field mean nan
field stddev nan
field min nan
field max nan
field sum 0
field sqrsum 0
attr source symbolErrorRate
attr title "Symbol error rate, histogram"
bin	-inf	0
bin	-0.5	0
bin	-0.46666666666667	0
bin	-0.43333333333333	0
bin	-0.4	0
bin	-0.36666666666667	0
bin	-0.33333333333333	0
bin	-0.3	0
bin	-0.26666666666667	0
bin	-0.23333333333333	0
bin	-0.2	0
bin	-0.16666666666667	0
bin	-0.13333333333333	0
bin	-0.1	0
bin	-0.066666666666667	0
bin	-0.033333333333333	0
bin	-6.9388939039072e-018	0
bin	0.033333333333333	0
bin	0.066666666666667	0
bin	0.1	0
bin	0.13333333333333	0
bin	0.16666666666667	0
bin	0.2	0
bin	0.23333333333333	0
bin	0.26666666666667	0
bin	0.3	0
bin	0.33333333333333	0
bin	0.36666666666667	0
bin	0.4	0
bin	0.43333333333333	0
bin	0.46666666666667	0
bin	0.5	0
statistic LoRaNetworkTest.loRaNodes[7].LoRaNic.radio bitErrorRate:histogram
field count 0
field mean nan
field stddev nan
field min nan
field max nan
field sum 0
field sqrsum 0
attr source bitErrorRate
attr title "Bit error rate, histogram"
bin	-inf	0
bin	-0.5	0
bin	-0.46666666666667	0
bin	-0.43333333333333	0
bin	-0.4	0
bin	-0.36666666666667	0
bin	-0.33333333333333	0
bin	-0.3	0
bin	-0.26666666666667	0
bin	-0.23333333333333	0
bin	-0.2	0
bin	-0.16666666666667	0
bin	-0.13333333333333	0
bin	-0.1	0
bin	-0.066666666666667	0
bin	-0.033333333333333	0
bin	-6.9388939039072e-018	0
bin	0.033333333333333	0
bin	0.066666666666667	0
bin	0.1	0
bin	0.13333333333333	0
bin	0.16666666666667	0
bin	0.2	0
bin	0.23333333333333	0
bin	0.26666666666667	0
bin	0.3	0
bin	0.33333333333333	0
bin	0.36666666666667	0
bin	0.4	0
bin	0.43333333333333	0
bin	0.46666666666667	0
bin	0.5	0
statistic LoRaNetworkTest.loRaNodes[7].LoRaNic.radio packetErrorRate:histogram
field count 0
field mean nan
field stddev nan
field min nan
field max nan
field sum 0
field sqrsum 0
attr source packetErrorRate
attr title "Packet error rate, histogram"
bin	-inf	0
bin	-0.5	0
bin	-0.46666666666667	0
bin	-0.43333333333333	0
bin	-0.4	0
bin	-0.36666666666667	0
bin	-0.33333333333333	0
bin	-0.3	0
bin	-0.26666666666667	0
bin	-0.23333333333333	0
bin	-0.2	0
bin	-0.16666666666667	0
bin	-0.13333333333333	0
bin	-0.1	0
bin	-0.066666666666667	0
bin	-0.033333333333333	0
bin	-6.9388939039072e-018	0
bin	0.033333333333333	0
bin	0.066666666666667	0
bin	0.1	0
bin	0.13333333333333	0
bin	0.16666666666667	0
bin	0.2	0
bin	0.23333333333333	0
bin	0.26666666666667	0
bin	0.3	0
bin	0.33333333333333	0
bin	0.36666666666667	0
bin	0.4	0
bin	0.43333333333333	0
bin	0.46666666666667	0
bin	0.5	0
statistic LoRaNetworkTest.loRaNodes[7].LoRaNic.radio minSNIR:histogram
field count 86
field mean 17.695977091374
field stddev 31.622491355904
field min 1.0924800519317
field max 154.80808132196
field sum 1521.8540298582
field sqrsum 111929.16061089
attr source minSNIR
attr title "Min SNIR, histogram"
bin	-inf	0
bin	-75.765320583084	0
bin	-65.517613831749	0
bin	-55.269907080413	0
bin	-45.022200329078	0
bin	-34.774493577742	0
bin	-24.526786826407	0
bin	-14.279080075072	0
bin	-4.0313733237361	48
bin	6.2163334275994	22
bin	16.464040178935	6
bin	26.71174693027	0
bin	36.959453681606	1
bin	47.207160432941	0
bin	57.454867184277	0
bin	67.702573935612	0
bin	77.950280686947	0
bin	88.197987438283	7
bin	98.445694189618	0
bin	108.69340094095	0
bin	118.94110769229	0
bin	129.18881444362	0
bin	139.43652119496	0
bin	149.6842279463	2
bin	159.93193469763	0
bin	170.17964144897	0
bin	180.4273482003	0
bin	190.67505495164	0
bin	200.92276170297	0
bin	211.17046845431	0
bin	221.41817520564	0
bin	231.66588195698	0
scalar LoRaNetworkTest.loRaNodes[7].LoRaNic.radio transmissionState:count 1612
attr interpolationmode sample-hold
attr source transmissionStateChanged
attr title "Radio transmission state, count"
scalar LoRaNetworkTest.loRaNodes[7].LoRaNic.radio receptionState:count 1972
attr interpolationmode sample-hold
attr source receptionStateChanged
attr title "Radio reception state, count"
scalar LoRaNetworkTest.loRaNodes[7].LoRaNic.radio radioMode:count 2602
attr interpolationmode sample-hold
attr source radioModeChanged
attr title "Radio mode, count"
scalar LoRaNetworkTest.loRaNodes[7].SimpleLoRaApp positionX 389.84098870307
scalar LoRaNetworkTest.loRaNodes[7].SimpleLoRaApp positionY 253.86956233531
scalar LoRaNetworkTest.loRaNodes[7].SimpleLoRaApp finalTP 14
scalar LoRaNetworkTest.loRaNodes[7].SimpleLoRaApp finalSF 12
scalar LoRaNetworkTest.loRaNodes[7].SimpleLoRaApp sentPackets 403
scalar LoRaNetworkTest.loRaNodes[7].SimpleLoRaApp receivedADRCommands 0
scalar LoRaNetworkTest.loRaNodes[7].SimpleLoRaApp LoRa_AppPacketSent:count 403
attr source LoRa_AppPacketSent
scalar LoRaNetworkTest.loRaNodes[8].LoRaNic.mac numRetry 0
scalar LoRaNetworkTest.loRaNodes[8].LoRaNic.mac numSentWithoutRetry 0
scalar LoRaNetworkTest.loRaNodes[8].LoRaNic.mac numGivenUp 0
scalar LoRaNetworkTest.loRaNodes[8].LoRaNic.mac numSent 725
scalar LoRaNetworkTest.loRaNodes[8].LoRaNic.mac numReceived 0
scalar LoRaNetworkTest.loRaNodes[8].LoRaNic.mac numSentBroadcast 0
scalar LoRaNetworkTest.loRaNodes[8].LoRaNic.mac numReceivedBroadcast 0
scalar LoRaNetworkTest.loRaNodes[8].LoRaNic.radio.transmitter LoRaTransmissionCreated:count 402
attr source LoRaTransmissionCreated
scalar LoRaNetworkTest.loRaNodes[8].LoRaNic.radio.receiver numCollisions 0
scalar LoRaNetworkTest.loRaNodes[8].LoRaNic.radio.receiver rcvBelowSensitivity 0
scalar LoRaNetworkTest.loRaNodes[8].LoRaNic.radio.receiver LoRaReceptionCollision:count 0
attr source LoRaReceptionCollision
scalar LoRaNetworkTest.loRaNodes[8].LoRaNic.radio.energyConsumer totalEnergyConsumed 138.64960129215
statistic LoRaNetworkTest.loRaNodes[8].LoRaNic.radio symbolErrorRate:histogram
field count 0
field mean nan
field stddev nan
field min nan
field max nan
field sum 0
field sqrsum 0
attr source symbolErrorRate
attr title "Symbol error rate, histogram"
bin	-inf	0
bin	-0.5	0
bin	-0.46666666666667	0
bin	-0.43333333333333	0
bin	-0.4	0
bin	-0.36666666666667	0
bin	-0.33333333333333	0
bin	-0.3	0
bin	-0.26666666666667	0
bin	-0.23333333333333	0
bin	-0.2	0
bin	-0.16666666666667	0
bin	-0.13333333333333	0
bin	-0.1	0
bin	-0.066666666666667	0
bin	-0.033333333333333	0
bin	-6.9388939039072e-018	0
bin	0.033333333333333	0
bin	0.066666666666667	0
bin	0.1	0
bin	0.13333333333333	0
bin	0.16666666666667	0
bin	0.2	0
bin	0.23333333333333	0
bin	0.26666666666667	0
bin	0.3	0
bin	0.33333333333333	0
bin	0.36666666666667	0
bin	0.4	0
bin	0.43333333333333	0
bin	0.46666666666667	0
bin	0.5	0
statistic LoRaNetworkTest.loRaNodes[8].LoRaNic.radio bitErrorRate:histogram
field count 0
field mean nan
field stddev nan
field min nan
field max nan
field sum 0
field sqrsum 0
attr source bitErrorRate
attr title "Bit error rate, histogram"
bin	-inf	0
bin	-0.5	0
bin	-0.46666666666667	0
bin	-0.43333333333333	0
bin	-0.4	0
bin	-0.36666666666667	0
bin	-0.33333333333333	0
bin	-0.3	0
bin	-0.26666666666667	0
bin	-0.23333333333333	0
bin	-0.2	0
bin	-0.16666666666667	0
bin	-0.13333333333333	0
bin	-0.1	0
bin	-0.066666666666667	0
bin	-0.033333333333333	0
bin	-6.9388939039072e-018	0
bin	0.033333333333333	0
bin	0.066666666666667	0
bin	0.1	0
bin	0.13333333333333	0
bin	0.16666666666667	0
bin	0.2	0
bin	0.23333333333333	0
bin	0.26666666666667	0
bin	0.3	0
bin	0.33333333333333	0
bin	0.36666666666667	0
bin	0.4	0
bin	0.43333333333333	0
bin	0.46666666666667	0
bin	0.5	0
statistic LoRaNetworkTest.loRaNodes[8].LoRaNic.radio packetErrorRate:histogram
field count 0
field mean nan
field stddev nan
field min nan
field max nan
field sum 0
field sqrsum 0
attr source packetErrorRate
attr title "Packet error rate, histogram"
bin	-inf	0
bin	-0.5	0
bin	-0.46666666666667	0
bin	-0.43333333333333	0
bin	-0.4	0
bin	-0.36666666666667	0
bin	-0.33333333333333	0
bin	-0.3	0
bin	-0.26666666666667	0
bin	-0.23333333333333	0
bin	-0.2	0
bin	-0.16666666666667	0
bin	-0.13333333333333	0
bin	-0.1	0
bin	-0.066666666666667	0
bin	-0.033333333333333	0
bin	-6.9388939039072e-018	0
bin	0.033333333333333	0
bin	0.066666666666667	0
bin	0.1	0
bin	0.13333333333333	0
bin	0.16666666666667	0
bin	0.2	0
bin	0.23333333333333	0
bin	0.26666666666667	0
bin	0.3	0
bin	0.33333333333333	0
bin	0.36666666666667	0
bin	0.4	0
bin	0.43333333333333	0
bin	0.46666666666667	0
bin	0.5	0
statistic LoRaNetworkTest.loRaNodes[8].LoRaNic.radio minSNIR:histogram
field count 73
field mean 37.713318742918
field stddev 73.387205246672
field min 1.4277139307828
field max 256.98799051858
field sum 2753.072268233
field sqrsum 491596.58833619
attr source minSNIR
attr title "Min SNIR, histogram"
bin	-inf	0
bin	-126.35242436312	0
bin	-109.3150725906	0
bin	-92.277720818076	0
bin	-75.240369045556	0
bin	-58.203017273036	0
bin	-41.165665500517	0
bin	-24.128313727997	0
bin	-7.0909619554771	39
bin	9.9463898170427	13
bin	26.983741589562	10
bin	44.021093362082	3
bin	61.058445134602	1
bin	78.095796907122	0
bin	95.133148679641	0
bin	112.17050045216	0
bin	129.20785222468	0
bin	146.2452039972	0
bin	163.28255576972	0
bin	180.31990754224	0
bin	197.35725931476	0
bin	214.39461108728	0
bin	231.4319628598	0
bin	248.46931463232	7
bin	265.50666640484	0
bin	282.54401817736	0
bin	299.58136994988	0
bin	316.6187217224	0
bin	333.65607349492	0
bin	350.69342526744	0
bin	367.73077703996	0
bin	384.76812881248	0
scalar LoRaNetworkTest.loRaNodes[8].LoRaNic.radio transmissionState:count 1608
attr interpolationmode sample-hold
attr source transmissionStateChanged
attr title "Radio transmission state, count"
scalar LoRaNetworkTest.loRaNodes[8].LoRaNic.radio receptionState:count 1928
attr interpolationmode sample-hold
attr source receptionStateChanged
attr title "Radio reception state, count"
scalar LoRaNetworkTest.loRaNodes[8].LoRaNic.radio radioMode:count 2579
attr interpolationmode sample-hold
attr source radioModeChanged
attr title "Radio mode, count"
scalar LoRaNetworkTest.loRaNodes[8].SimpleLoRaApp positionX 272.66139060259
scalar LoRaNetworkTest.loRaNodes[8].SimpleLoRaApp positionY 188.5367007181
scalar LoRaNetworkTest.loRaNodes[8].SimpleLoRaApp finalTP 14
scalar LoRaNetworkTest.loRaNodes[8].SimpleLoRaApp finalSF 12
scalar LoRaNetworkTest.loRaNodes[8].SimpleLoRaApp sentPackets 402
scalar LoRaNetworkTest.loRaNodes[8].SimpleLoRaApp receivedADRCommands 0
scalar LoRaNetworkTest.loRaNodes[8].SimpleLoRaApp LoRa_AppPacketSent:count 402
attr source LoRa_AppPacketSent
scalar LoRaNetworkTest.loRaNodes[9].LoRaNic.mac numRetry 0
scalar LoRaNetworkTest.loRaNodes[9].LoRaNic.mac numSentWithoutRetry 0
scalar LoRaNetworkTest.loRaNodes[9].LoRaNic.mac numGivenUp 0
scalar LoRaNetworkTest.loRaNodes[9].LoRaNic.mac numSent 720
scalar LoRaNetworkTest.loRaNodes[9].LoRaNic.mac numReceived 0
scalar LoRaNetworkTest.loRaNodes[9].LoRaNic.mac numSentBroadcast 0
scalar LoRaNetworkTest.loRaNodes[9].LoRaNic.mac numReceivedBroadcast 0
scalar LoRaNetworkTest.loRaNodes[9].LoRaNic.radio.transmitter LoRaTransmissionCreated:count 401
attr source LoRaTransmissionCreated
scalar LoRaNetworkTest.loRaNodes[9].LoRaNic.radio.receiver numCollisions 0
scalar LoRaNetworkTest.loRaNodes[9].LoRaNic.radio.receiver rcvBelowSensitivity 23
scalar LoRaNetworkTest.loRaNodes[9].LoRaNic.radio.receiver LoRaReceptionCollision:count 0
attr source LoRaReceptionCollision
scalar LoRaNetworkTest.loRaNodes[9].LoRaNic.radio.energyConsumer totalEnergyConsumed 137.34393332513
statistic LoRaNetworkTest.loRaNodes[9].LoRaNic.radio symbolErrorRate:histogram
field count 0
field mean nan
field stddev nan
field min nan
field max nan
field sum 0
field sqrsum 0
attr source symbolErrorRate
attr title "Symbol error rate, histogram"
bin	-inf	0
bin	-0.5	0
bin	-0.46666666666667	0
bin	-0.43333333333333	0
bin	-0.4	0
bin	-0.36666666666667	0
bin	-0.33333333333333	0
bin	-0.3	0
bin	-0.26666666666667	0
bin	-0.23333333333333	0
bin	-0.2	0
bin	-0.16666666666667	0
bin	-0.13333333333333	0
bin	-0.1	0
bin	-0.066666666666667	0
bin	-0.033333333333333	0
bin	-6.9388939039072e-018	0
bin	0.033333333333333	0
bin	0.066666666666667	0
bin	0.1	0
bin	0.13333333333333	0
bin	0.16666666666667	0
bin	0.2	0
bin	0.23333333333333	0
bin	0.26666666666667	0
bin	0.3	0
bin	0.33333333333333	0
bin	0.36666666666667	0
bin	0.4	0
bin	0.43333333333333	0
bin	0.46666666666667	0
bin	0.5	0
statistic LoRaNetworkTest.loRaNodes[9].LoRaNic.radio bitErrorRate:histogram
field count 0
field mean nan
field stddev nan
field min nan
field max nan
field sum 0
field sqrsum 0
attr source bitErrorRate
attr title "Bit error rate, histogram"
bin	-inf	0
bin	-0.5	0
bin	-0.46666666666667	0
bin	-0.43333333333333	0
bin	-0.4	0
bin	-0.36666666666667	0
bin	-0.33333333333333	0
bin	-0.3	0
bin	-0.26666666666667	0
bin	-0.23333333333333	0
bin	-0.2	0
bin	-0.16666666666667	0
bin	-0.13333333333333	0
bin	-0.1	0
bin	-0.066666666666667	0
bin	-0.033333333333333	0
bin	-6.9388939039072e-018	0
bin	0.033333333333333	0
bin	0.066666666666667	0
bin	0.1	0
bin	0.13333333333333	0
bin	0.16666666666667	0
bin	0.2	0
bin	0.23333333333333	0
bin	0.26666666666667	0
bin	0.3	0
bin	0.33333333333333	0
bin	0.36666666666667	0
bin	0.4	0
bin	0.43333333333333	0
bin	0.46666666666667	0
bin	0.5	0
statistic LoRaNetworkTest.loRaNodes[9].LoRaNic.radio packetErrorRate:histogram
field count 0
field mean nan
field stddev nan
field min nan
field max nan
field sum 0
field sqrsum 0
attr source packetErrorRate
attr title "Packet error rate, histogram"
bin	-inf	0
bin	-0.5	0
bin	-0.46666666666667	0
bin	-0.43333333333333	0
bin	-0.4	0
bin	-0.36666666666667	0
bin	-0.33333333333333	0
bin	-0.3	0
bin	-0.26666666666667	0
bin	-0.23333333333333	0
bin	-0.2	0
bin	-0.16666666666667	0
bin	-0.13333333333333	0
bin	-0.1	0
bin	-0.066666666666667	0
bin	-0.033333333333333	0
bin	-6.9388939039072e-018	0
bin	0.033333333333333	0
bin	0.066666666666667	0
bin	0.1	0
bin	0.13333333333333	0
bin	0.16666666666667	0
bin	0.2	0
bin	0.23333333333333	0
bin	0.26666666666667	0
bin	0.3	0
bin	0.33333333333333	0
bin	0.36666666666667	0
bin	0.4	0
bin	0.43333333333333	0
bin	0.46666666666667	0
bin	0.5	0
statistic LoRaNetworkTest.loRaNodes[9].LoRaNic.radio minSNIR:histogram
field count 71
field mean 10.111110150706
field stddev 19.243797419281
field min 1.0029201599136
field max 121.94766523756
field sum 717.88882070012
field sqrsum 33181.314680061
attr source minSNIR
attr title "Min SNIR, histogram"
bin	-inf	0
bin	-59.469452378907	0
bin	-51.406469373731	0
bin	-43.343486368555	0
bin	-35.280503363379	0
bin	-27.217520358203	0
bin	-19.154537353027	0
bin	-11.091554347851	0
bin	-3.0285713426745	49
bin	5.0344116625016	13
bin	13.097394667678	1
bin	21.160377672854	0
bin	29.22336067803	0
bin	37.286343683206	0
bin	45.349326688382	7
bin	53.412309693558	0
bin	61.475292698735	0
bin	69.538275703911	0
bin	77.601258709087	0
bin	85.664241714263	0
bin	93.727224719439	0
bin	101.79020772462	0
bin	109.85319072979	0
bin	117.91617373497	1
bin	125.97915674014	0
bin	134.04213974532	0
bin	142.1051227505	0
bin	150.16810575567	0
bin	158.23108876085	0
bin	166.29407176602	0
bin	174.3570547712	0
bin	182.42003777638	0
scalar LoRaNetworkTest.loRaNodes[9].LoRaNic.radio transmissionState:count 1604
attr interpolationmode sample-hold
attr source transmissionStateChanged
attr title "Radio transmission state, count"
scalar LoRaNetworkTest.loRaNodes[9].LoRaNic.radio receptionState:count 1956
attr interpolationmode sample-hold
attr source receptionStateChanged
attr title "Radio reception state, count"
scalar LoRaNetworkTest.loRaNodes[9].LoRaNic.radio radioMode:count 2599
attr interpolationmode sample-hold
attr source radioModeChanged
attr title "Radio mode, count"
scalar LoRaNetworkTest.loRaNodes[9].SimpleLoRaApp positionX 401.31780903786
scalar LoRaNetworkTest.loRaNodes[9].SimpleLoRaApp positionY 34.097308181226
scalar LoRaNetworkTest.loRaNodes[9].SimpleLoRaApp finalTP 14
scalar LoRaNetworkTest.loRaNodes[9].SimpleLoRaApp finalSF 12
scalar LoRaNetworkTest.loRaNodes[9].SimpleLoRaApp sentPackets 401
scalar LoRaNetworkTest.loRaNodes[9].SimpleLoRaApp receivedADRCommands 0
scalar LoRaNetworkTest.loRaNodes[9].SimpleLoRaApp LoRa_AppPacketSent:count 401
attr source LoRa_AppPacketSent
scalar LoRaNetworkTest.loRaNodes[10].LoRaNic.mac numRetry 0
scalar LoRaNetworkTest.loRaNodes[10].LoRaNic.mac numSentWithoutRetry 0
scalar LoRaNetworkTest.loRaNodes[10].LoRaNic.mac numGivenUp 0
scalar LoRaNetworkTest.loRaNodes[10].LoRaNic.mac numSent 711
scalar LoRaNetworkTest.loRaNodes[10].LoRaNic.mac numReceived 0
scalar LoRaNetworkTest.loRaNodes[10].LoRaNic.mac numSentBroadcast 0
scalar LoRaNetworkTest.loRaNodes[10].LoRaNic.mac numReceivedBroadcast 0
scalar LoRaNetworkTest.loRaNodes[10].LoRaNic.radio.transmitter LoRaTransmissionCreated:count 387
attr source LoRaTransmissionCreated
scalar LoRaNetworkTest.loRaNodes[10].LoRaNic.radio.receiver numCollisions 0
scalar LoRaNetworkTest.loRaNodes[10].LoRaNic.radio.receiver rcvBelowSensitivity 3
scalar LoRaNetworkTest.loRaNodes[10].LoRaNic.radio.receiver LoRaReceptionCollision:count 0
attr source LoRaReceptionCollision
scalar LoRaNetworkTest.loRaNodes[10].LoRaNic.radio.energyConsumer totalEnergyConsumed 135.76950185183
statistic LoRaNetworkTest.loRaNodes[10].LoRaNic.radio symbolErrorRate:histogram
field count 0
field mean nan
field stddev nan
field min nan
field max nan
field sum 0
field sqrsum 0
attr source symbolErrorRate
attr title "Symbol error rate, histogram"
bin	-inf	0
bin	-0.5	0
bin	-0.46666666666667	0
bin	-0.43333333333333	0
bin	-0.4	0
bin	-0.36666666666667	0
bin	-0.33333333333333	0
bin	-0.3	0
bin	-0.26666666666667	0
bin	-0.23333333333333	0
bin	-0.2	0
bin	-0.16666666666667	0
bin	-0.13333333333333	0
bin	-0.1	0
bin	-0.066666666666667	0
bin	-0.033333333333333	0
bin	-6.9388939039072e-018	0
bin	0.033333333333333	0
bin	0.066666666666667	0
bin	0.1	0
bin	0.13333333333333	0
bin	0.16666666666667	0
bin	0.2	0
bin	0.23333333333333	0
bin	0.26666666666667	0
bin	0.3	0
bin	0.33333333333333	0
bin	0.36666666666667	0
bin	0.4	0
bin	0.43333333333333	0
bin	0.46666666666667	0
bin	0.5	0
statistic LoRaNetworkTest.loRaNodes[10].LoRaNic.radio bitErrorRate:histogram
field count 0
field mean nan
field stddev nan
field min nan
field max nan
field sum 0
field sqrsum 0
attr source bitErrorRate
attr title "Bit error rate, histogram"
bin	-inf	0
bin	-0.5	0
bin	-0.46666666666667	0
bin	-0.43333333333333	0
bin	-0.4	0
bin	-0.36666666666667	0
bin	-0.33333333333333	0
bin	-0.3	0
bin	-0.26666666666667	0
bin	-0.23333333333333	0
bin	-0.2	0
bin	-0.16666666666667	0
bin	-0.13333333333333	0
bin	-0.1	0
bin	-0.066666666666667	0
bin	-0.033333333333333	0
bin	-6.9388939039072e-018	0
bin	0.033333333333333	0
bin	0.066666666666667	0
bin	0.1	0
bin	0.13333333333333	0
bin	0.16666666666667	0
bin	0.2	0
bin	0.23333333333333	0
bin	0.26666666666667	0
bin	0.3	0
bin	0.33333333333333	0
bin	0.36666666666667	0
bin	0.4	0
bin	0.43333333333333	0
bin	0.46666666666667	0
bin	0.5	0
statistic LoRaNetworkTest.loRaNodes[10].LoRaNic.radio packetErrorRate:histogram
field count 0
field mean nan
field stddev nan
field min nan
field max nan
field sum 0
field sqrsum 0
attr source packetErrorRate
attr title "Packet error rate, histogram"
bin	-inf	0
bin	-0.5	0
bin	-0.46666666666667	0
bin	-0.43333333333333	0
bin	-0.4	0
bin	-0.36666666666667	0
bin	-0.33333333333333	0
bin	-0.3	0
bin	-0.26666666666667	0
bin	-0.23333333333333	0
bin	-0.2	0
bin	-0.16666666666667	0
bin	-0.13333333333333	0
bin	-0.1	0
bin	-0.066666666666667	0
bin	-0.033333333333333	0
bin	-6.9388939039072e-018	0
bin	0.033333333333333	0
bin	0.066666666666667	0
bin	0.1	0
bin	0.13333333333333	0
bin	0.16666666666667	0
bin	0.2	0
bin	0.23333333333333	0
bin	0.26666666666667	0
bin	0.3	0
bin	0.33333333333333	0
bin	0.36666666666667	0
bin	0.4	0
bin	0.43333333333333	0
bin	0.46666666666667	0
bin	0.5	0
statistic LoRaNetworkTest.loRaNodes[10].LoRaNic.radio minSNIR:histogram
field count 83
field mean 8.5287549900612
field stddev 24.899498361063
field min 1.0637314642446
field max 161.70322704921
field sum 707.88666417508
field sqrsum 56876.163447354
attr source minSNIR
attr title "Min SNIR, histogram"
bin	-inf	0
bin	-79.256016328236	0
bin	-68.546716622572	0
bin	-57.837416916908	0
bin	-47.128117211244	0
bin	-36.41881750558	0
bin	-25.709517799916	0
bin	-15.000218094252	0
bin	-4.2909183885874	64
bin	6.4183813170767	16
bin	17.127681022741	0
bin	27.836980728405	1
bin	38.546280434069	0
bin	49.255580139733	0
bin	59.964879845397	0
bin	70.674179551061	0
bin	81.383479256725	0
bin	92.09277896239	0
bin	102.80207866805	0
bin	113.51137837372	0
bin	124.22067807938	0
bin	134.92997778505	0
bin	145.63927749071	0
bin	156.34857719637	2
bin	167.05787690204	0
bin	177.7671766077	0
bin	188.47647631337	0
bin	199.18577601903	0
bin	209.89507572469	0
bin	220.60437543036	0
bin	231.31367513602	0
bin	242.02297484169	0
scalar LoRaNetworkTest.loRaNodes[10].LoRaNic.radio transmissionState:count 1548
attr interpolationmode sample-hold
attr source transmissionStateChanged
attr title "Radio transmission state, count"
scalar LoRaNetworkTest.loRaNodes[10].LoRaNic.radio receptionState:count 1912
attr interpolationmode sample-hold
attr source receptionStateChanged
attr title "Radio reception state, count"
scalar LoRaNetworkTest.loRaNodes[10].LoRaNic.radio radioMode:count 2512
attr interpolationmode sample-hold
attr source radioModeChanged
attr title "Radio mode, count"
scalar LoRaNetworkTest.loRaNodes[10].SimpleLoRaApp positionX 41.822062544525
scalar LoRaNetworkTest.loRaNodes[10].SimpleLoRaApp positionY 311.12250074744
scalar LoRaNetworkTest.loRaNodes[10].SimpleLoRaApp finalTP 14
scalar LoRaNetworkTest.loRaNodes[10].SimpleLoRaApp finalSF 12
scalar LoRaNetworkTest.loRaNodes[10].SimpleLoRaApp sentPackets 387
scalar LoRaNetworkTest.loRaNodes[10].SimpleLoRaApp receivedADRCommands 0
scalar LoRaNetworkTest.loRaNodes[10].SimpleLoRaApp LoRa_AppPacketSent:count 387
attr source LoRa_AppPacketSent
scalar LoRaNetworkTest.loRaNodes[11].LoRaNic.mac numRetry 0
scalar LoRaNetworkTest.loRaNodes[11].LoRaNic.mac numSentWithoutRetry 0
scalar LoRaNetworkTest.loRaNodes[11].LoRaNic.mac numGivenUp 0
scalar LoRaNetworkTest.loRaNodes[11].LoRaNic.mac numSent 744
scalar LoRaNetworkTest.loRaNodes[11].LoRaNic.mac numReceived 0
scalar LoRaNetworkTest.loRaNodes[11].LoRaNic.mac numSentBroadcast 0
scalar LoRaNetworkTest.loRaNodes[11].LoRaNic.mac numReceivedBroadcast 0
scalar LoRaNetworkTest.loRaNodes[11].LoRaNic.radio.transmitter LoRaTransmissionCreated:count 410
attr source LoRaTransmissionCreated
scalar LoRaNetworkTest.loRaNodes[11].LoRaNic.radio.receiver numCollisions 0
scalar LoRaNetworkTest.loRaNodes[11].LoRaNic.radio.receiver rcvBelowSensitivity 0
scalar LoRaNetworkTest.loRaNodes[11].LoRaNic.radio.receiver LoRaReceptionCollision:count 0
attr source LoRaReceptionCollision
scalar LoRaNetworkTest.loRaNodes[11].LoRaNic.radio.energyConsumer totalEnergyConsumed 141.96041769934
statistic LoRaNetworkTest.loRaNodes[11].LoRaNic.radio symbolErrorRate:histogram
field count 0
field mean nan
field stddev nan
field min nan
field max nan
field sum 0
field sqrsum 0
attr source symbolErrorRate
attr title "Symbol error rate, histogram"
bin	-inf	0
bin	-0.5	0
bin	-0.46666666666667	0
bin	-0.43333333333333	0
bin	-0.4	0
bin	-0.36666666666667	0
bin	-0.33333333333333	0
bin	-0.3	0
bin	-0.26666666666667	0
bin	-0.23333333333333	0
bin	-0.2	0
bin	-0.16666666666667	0
bin	-0.13333333333333	0
bin	-0.1	0
bin	-0.066666666666667	0
bin	-0.033333333333333	0
bin	-6.9388939039072e-018	0
bin	0.033333333333333	0
bin	0.066666666666667	0
bin	0.1	0
bin	0.13333333333333	0
bin	0.16666666666667	0
bin	0.2	0
bin	0.23333333333333	0
bin	0.26666666666667	0
bin	0.3	0
bin	0.33333333333333	0
bin	0.36666666666667	0
bin	0.4	0
bin	0.43333333333333	0
bin	0.46666666666667	0
bin	0.5	0
statistic LoRaNetworkTest.loRaNodes[11].LoRaNic.radio bitErrorRate:histogram
field count 0
field mean nan
field stddev nan
field min nan
field max nan
field sum 0
field sqrsum 0
attr source bitErrorRate
attr title "Bit error rate, histogram"
bin	-inf	0
bin	-0.5	0
bin	-0.46666666666667	0
bin	-0.43333333333333	0
bin	-0.4	0
bin	-0.36666666666667	0
bin	-0.33333333333333	0
bin	-0.3	0
bin	-0.26666666666667	0
bin	-0.23333333333333	0
bin	-0.2	0
bin	-0.16666666666667	0
bin	-0.13333333333333	0
bin	-0.1	0
bin	-0.066666666666667	0
bin	-0.033333333333333	0
bin	-6.9388939039072e-018	0
bin	0.033333333333333	0
bin	0.066666666666667	0
bin	0.1	0
bin	0.13333333333333	0
bin	0.16666666666667	0
bin	0.2	0
bin	0.23333333333333	0
bin	0.26666666666667	0
bin	0.3	0
bin	0.33333333333333	0
bin	0.36666666666667	0
bin	0.4	0
bin	0.43333333333333	0
bin	0.46666666666667	0
bin	0.5	0
statistic LoRaNetworkTest.loRaNodes[11].LoRaNic.radio packetErrorRate:histogram
field count 0
field mean nan
field stddev nan
field min nan
field max nan
field sum 0
field sqrsum 0
attr source packetErrorRate
attr title "Packet error rate, histogram"
bin	-inf	0
bin	-0.5	0
bin	-0.46666666666667	0
bin	-0.43333333333333	0
bin	-0.4	0
bin	-0.36666666666667	0
bin	-0.33333333333333	0
bin	-0.3	0
bin	-0.26666666666667	0
bin	-0.23333333333333	0
bin	-0.2	0
bin	-0.16666666666667	0
bin	-0.13333333333333	0
bin	-0.1	0
bin	-0.066666666666667	0
bin	-0.033333333333333	0
bin	-6.9388939039072e-018	0
bin	0.033333333333333	0
bin	0.066666666666667	0
bin	0.1	0
bin	0.13333333333333	0
bin	0.16666666666667	0
bin	0.2	0
bin	0.23333333333333	0
bin	0.26666666666667	0
bin	0.3	0
bin	0.33333333333333	0
bin	0.36666666666667	0
bin	0.4	0
bin	0.43333333333333	0
bin	0.46666666666667	0
bin	0.5	0
statistic LoRaNetworkTest.loRaNodes[11].LoRaNic.radio minSNIR:histogram
field count 78
field mean 9.0209519925631
field stddev 15.061764916882
field min 1.03686288622
field max 77.085307881006
field sum 703.63425541992
field sqrsum 23815.421544145
attr source minSNIR
attr title "Min SNIR, histogram"
bin	-inf	0
bin	-36.987359611173	0
bin	-31.917463278187	0
bin	-26.847566945202	0
bin	-21.777670612216	0
bin	-16.70777427923	0
bin	-11.637877946244	0
bin	-6.5679816132586	0
bin	-1.4980852802728	40
bin	3.5718110527129	17
bin	8.6417073856987	12
bin	13.711603718684	0
bin	18.78150005167	4
bin	23.851396384656	0
bin	28.921292717642	1
bin	33.991189050627	1
bin	39.061085383613	0
bin	44.130981716599	0
bin	49.200878049585	0
bin	54.270774382571	0
bin	59.340670715556	0
bin	64.410567048542	0
bin	69.480463381528	0
bin	74.550359714514	3
bin	79.620256047499	0
bin	84.690152380485	0
bin	89.760048713471	0
bin	94.829945046457	0
bin	99.899841379442	0
bin	104.96973771243	0
bin	110.03963404541	0
bin	115.1095303784	0
scalar LoRaNetworkTest.loRaNodes[11].LoRaNic.radio transmissionState:count 1640
attr interpolationmode sample-hold
attr source transmissionStateChanged
attr title "Radio transmission state, count"
scalar LoRaNetworkTest.loRaNodes[11].LoRaNic.radio receptionState:count 1960
attr interpolationmode sample-hold
attr source receptionStateChanged
attr title "Radio reception state, count"
scalar LoRaNetworkTest.loRaNodes[11].LoRaNic.radio radioMode:count 2622
attr interpolationmode sample-hold
attr source radioModeChanged
attr title "Radio mode, count"
scalar LoRaNetworkTest.loRaNodes[11].SimpleLoRaApp positionX 176.75593793392
scalar LoRaNetworkTest.loRaNodes[11].SimpleLoRaApp positionY 399.65752456337
scalar LoRaNetworkTest.loRaNodes[11].SimpleLoRaApp finalTP 14
scalar LoRaNetworkTest.loRaNodes[11].SimpleLoRaApp finalSF 12
scalar LoRaNetworkTest.loRaNodes[11].SimpleLoRaApp sentPackets 410
scalar LoRaNetworkTest.loRaNodes[11].SimpleLoRaApp receivedADRCommands 0
scalar LoRaNetworkTest.loRaNodes[11].SimpleLoRaApp LoRa_AppPacketSent:count 410
attr source LoRa_AppPacketSent
scalar LoRaNetworkTest.loRaNodes[12].LoRaNic.mac numRetry 0
scalar LoRaNetworkTest.loRaNodes[12].LoRaNic.mac numSentWithoutRetry 0
scalar LoRaNetworkTest.loRaNodes[12].LoRaNic.mac numGivenUp 0
scalar LoRaNetworkTest.loRaNodes[12].LoRaNic.mac numSent 728
scalar LoRaNetworkTest.loRaNodes[12].LoRaNic.mac numReceived 0
scalar LoRaNetworkTest.loRaNodes[12].LoRaNic.mac numSentBroadcast 0
scalar LoRaNetworkTest.loRaNodes[12].LoRaNic.mac numReceivedBroadcast 0
scalar LoRaNetworkTest.loRaNodes[12].LoRaNic.radio.transmitter LoRaTransmissionCreated:count 402
attr source LoRaTransmissionCreated
scalar LoRaNetworkTest.loRaNodes[12].LoRaNic.radio.receiver numCollisions 0
scalar LoRaNetworkTest.loRaNodes[12].LoRaNic.radio.receiver rcvBelowSensitivity 4
scalar LoRaNetworkTest.loRaNodes[12].LoRaNic.radio.receiver LoRaReceptionCollision:count 0
attr source LoRaReceptionCollision
scalar LoRaNetworkTest.loRaNodes[12].LoRaNic.radio.energyConsumer totalEnergyConsumed 138.88202440533
statistic LoRaNetworkTest.loRaNodes[12].LoRaNic.radio symbolErrorRate:histogram
field count 0
field mean nan
field stddev nan
field min nan
field max nan
field sum 0
field sqrsum 0
attr source symbolErrorRate
attr title "Symbol error rate, histogram"
bin	-inf	0
bin	-0.5	0
bin	-0.46666666666667	0
bin	-0.43333333333333	0
bin	-0.4	0
bin	-0.36666666666667	0
bin	-0.33333333333333	0
bin	-0.3	0
bin	-0.26666666666667	0
bin	-0.23333333333333	0
bin	-0.2	0
bin	-0.16666666666667	0
bin	-0.13333333333333	0
bin	-0.1	0
bin	-0.066666666666667	0
bin	-0.033333333333333	0
bin	-6.9388939039072e-018	0
bin	0.033333333333333	0
bin	0.066666666666667	0
bin	0.1	0
bin	0.13333333333333	0
bin	0.16666666666667	0
bin	0.2	0
bin	0.23333333333333	0
bin	0.26666666666667	0
bin	0.3	0
bin	0.33333333333333	0
bin	0.36666666666667	0
bin	0.4	0
bin	0.43333333333333	0
bin	0.46666666666667	0
bin	0.5	0
statistic LoRaNetworkTest.loRaNodes[12].LoRaNic.radio bitErrorRate:histogram
field count 0
field mean nan
field stddev nan
field min nan
field max nan
field sum 0
field sqrsum 0
attr source bitErrorRate
attr title "Bit error rate, histogram"
bin	-inf	0
bin	-0.5	0
bin	-0.46666666666667	0
bin	-0.43333333333333	0
bin	-0.4	0
bin	-0.36666666666667	0
bin	-0.33333333333333	0
bin	-0.3	0
bin	-0.26666666666667	0
bin	-0.23333333333333	0
bin	-0.2	0
bin	-0.16666666666667	0
bin	-0.13333333333333	0
bin	-0.1	0
bin	-0.066666666666667	0
bin	-0.033333333333333	0
bin	-6.9388939039072e-018	0
bin	0.033333333333333	0
bin	0.066666666666667	0
bin	0.1	0
bin	0.13333333333333	0
bin	0.16666666666667	0
bin	0.2	0
bin	0.23333333333333	0
bin	0.26666666666667	0
bin	0.3	0
bin	0.33333333333333	0
bin	0.36666666666667	0
bin	0.4	0
bin	0.43333333333333	0
bin	0.46666666666667	0
bin	0.5	0
statistic LoRaNetworkTest.loRaNodes[12].LoRaNic.radio packetErrorRate:histogram
field count 0
field mean nan
field stddev nan
field min nan
field max nan
field sum 0
field sqrsum 0
attr source packetErrorRate
attr title "Packet error rate, histogram"
bin	-inf	0
bin	-0.5	0
bin	-0.46666666666667	0
bin	-0.43333333333333	0
bin	-0.4	0
bin	-0.36666666666667	0
bin	-0.33333333333333	0
bin	-0.3	0
bin	-0.26666666666667	0
bin	-0.23333333333333	0
bin	-0.2	0
bin	-0.16666666666667	0
bin	-0.13333333333333	0
bin	-0.1	0
bin	-0.066666666666667	0
bin	-0.033333333333333	0
bin	-6.9388939039072e-018	0
bin	0.033333333333333	0
bin	0.066666666666667	0
bin	0.1	0
bin	0.13333333333333	0
bin	0.16666666666667	0
bin	0.2	0
bin	0.23333333333333	0
bin	0.26666666666667	0
bin	0.3	0
bin	0.33333333333333	0
bin	0.36666666666667	0
bin	0.4	0
bin	0.43333333333333	0
bin	0.46666666666667	0
bin	0.5	0
statistic LoRaNetworkTest.loRaNodes[12].LoRaNic.radio minSNIR:histogram
field count 75
field mean 22.686900038219
field stddev 43.779956543421
field min 1.0369042840623
field max 121.94766523756
field sum 1701.5175028664
field sqrsum 180436.81752665
attr source minSNIR
attr title "Min SNIR, histogram"
bin	-inf	0
bin	-59.418476192684	0
bin	-51.357758795785	0
bin	-43.297041398885	0
bin	-35.236324001986	0
bin	-27.175606605086	0
bin	-19.114889208187	0
bin	-11.054171811287	0
bin	-2.9934544143874	51
bin	5.0672629825121	9
bin	13.127980379412	2
bin	21.188697776311	1
bin	29.249415173211	0
bin	37.31013257011	0
bin	45.37084996701	0
bin	53.431567363909	0
bin	61.492284760809	0
bin	69.553002157709	0
bin	77.613719554608	0
bin	85.674436951508	0
bin	93.735154348407	0
bin	101.79587174531	0
bin	109.85658914221	0
bin	117.91730653911	12
bin	125.97802393601	0
bin	134.0387413329	0
bin	142.0994587298	0
bin	150.1601761267	0
bin	158.2208935236	0
bin	166.2816109205	0
bin	174.3423283174	0
bin	182.4030457143	0
scalar LoRaNetworkTest.loRaNodes[12].LoRaNic.radio transmissionState:count 1608
attr interpolationmode sample-hold
attr source transmissionStateChanged
attr title "Radio transmission state, count"
scalar LoRaNetworkTest.loRaNodes[12].LoRaNic.radio receptionState:count 1924
attr interpolationmode sample-hold
attr source receptionStateChanged
attr title "Radio reception state, count"
scalar LoRaNetworkTest.loRaNodes[12].LoRaNic.radio radioMode:count 2574
attr interpolationmode sample-hold
attr source radioModeChanged
attr title "Radio mode, count"
scalar LoRaNetworkTest.loRaNodes[12].SimpleLoRaApp positionX 373.51524330676
scalar LoRaNetworkTest.loRaNodes[12].SimpleLoRaApp positionY 67.368373163044
scalar LoRaNetworkTest.loRaNodes[12].SimpleLoRaApp finalTP 14
scalar LoRaNetworkTest.loRaNodes[12].SimpleLoRaApp finalSF 12
scalar LoRaNetworkTest.loRaNodes[12].SimpleLoRaApp sentPackets 402
scalar LoRaNetworkTest.loRaNodes[12].SimpleLoRaApp receivedADRCommands 0
scalar LoRaNetworkTest.loRaNodes[12].SimpleLoRaApp LoRa_AppPacketSent:count 402
attr source LoRa_AppPacketSent
scalar LoRaNetworkTest.loRaNodes[13].LoRaNic.mac numRetry 0
scalar LoRaNetworkTest.loRaNodes[13].LoRaNic.mac numSentWithoutRetry 0
scalar LoRaNetworkTest.loRaNodes[13].LoRaNic.mac numGivenUp 0
scalar LoRaNetworkTest.loRaNodes[13].LoRaNic.mac numSent 710
scalar LoRaNetworkTest.loRaNodes[13].LoRaNic.mac numReceived 0
scalar LoRaNetworkTest.loRaNodes[13].LoRaNic.mac numSentBroadcast 0
scalar LoRaNetworkTest.loRaNodes[13].LoRaNic.mac numReceivedBroadcast 0
scalar LoRaNetworkTest.loRaNodes[13].LoRaNic.radio.transmitter LoRaTransmissionCreated:count 385
attr source LoRaTransmissionCreated
scalar LoRaNetworkTest.loRaNodes[13].LoRaNic.radio.receiver numCollisions 0
scalar LoRaNetworkTest.loRaNodes[13].LoRaNic.radio.receiver rcvBelowSensitivity 6
scalar LoRaNetworkTest.loRaNodes[13].LoRaNic.radio.receiver LoRaReceptionCollision:count 0
attr source LoRaReceptionCollision
scalar LoRaNetworkTest.loRaNodes[13].LoRaNic.radio.energyConsumer totalEnergyConsumed 135.44848200537
statistic LoRaNetworkTest.loRaNodes[13].LoRaNic.radio symbolErrorRate:histogram
field count 0
field mean nan
field stddev nan
field min nan
field max nan
field sum 0
field sqrsum 0
attr source symbolErrorRate
attr title "Symbol error rate, histogram"
bin	-inf	0
bin	-0.5	0
bin	-0.46666666666667	0
bin	-0.43333333333333	0
bin	-0.4	0
bin	-0.36666666666667	0
bin	-0.33333333333333	0
bin	-0.3	0
bin	-0.26666666666667	0
bin	-0.23333333333333	0
bin	-0.2	0
bin	-0.16666666666667	0
bin	-0.13333333333333	0
bin	-0.1	0
bin	-0.066666666666667	0
bin	-0.033333333333333	0
bin	-6.9388939039072e-018	0
bin	0.033333333333333	0
bin	0.066666666666667	0
bin	0.1	0
bin	0.13333333333333	0
bin	0.16666666666667	0
bin	0.2	0
bin	0.23333333333333	0
bin	0.26666666666667	0
bin	0.3	0
bin	0.33333333333333	0
bin	0.36666666666667	0
bin	0.4	0
bin	0.43333333333333	0
bin	0.46666666666667	0
bin	0.5	0
statistic LoRaNetworkTest.loRaNodes[13].LoRaNic.radio bitErrorRate:histogram
field count 0
field mean nan
field stddev nan
field min nan
field max nan
field sum 0
field sqrsum 0
attr source bitErrorRate
attr title "Bit error rate, histogram"
bin	-inf	0
bin	-0.5	0
bin	-0.46666666666667	0
bin	-0.43333333333333	0
bin	-0.4	0
bin	-0.36666666666667	0
bin	-0.33333333333333	0
bin	-0.3	0
bin	-0.26666666666667	0
bin	-0.23333333333333	0
bin	-0.2	0
bin	-0.16666666666667	0
bin	-0.13333333333333	0
bin	-0.1	0
bin	-0.066666666666667	0
bin	-0.033333333333333	0
bin	-6.9388939039072e-018	0
bin	0.033333333333333	0
bin	0.066666666666667	0
bin	0.1	0
bin	0.13333333333333	0
bin	0.16666666666667	0
bin	0.2	0
bin	0.23333333333333	0
bin	0.26666666666667	0
bin	0.3	0
bin	0.33333333333333	0
bin	0.36666666666667	0
bin	0.4	0
bin	0.43333333333333	0
bin	0.46666666666667	0
bin	0.5	0
statistic LoRaNetworkTest.loRaNodes[13].LoRaNic.radio packetErrorRate:histogram
field count 0
field mean nan
field stddev nan
field min nan
field max nan
field sum 0
field sqrsum 0
attr source packetErrorRate
attr title "Packet error rate, histogram"
bin	-inf	0
bin	-0.5	0
bin	-0.46666666666667	0
bin	-0.43333333333333	0
bin	-0.4	0
bin	-0.36666666666667	0
bin	-0.33333333333333	0
bin	-0.3	0
bin	-0.26666666666667	0
bin	-0.23333333333333	0
bin	-0.2	0
bin	-0.16666666666667	0
bin	-0.13333333333333	0
bin	-0.1	0
bin	-0.066666666666667	0
bin	-0.033333333333333	0
bin	-6.9388939039072e-018	0
bin	0.033333333333333	0
bin	0.066666666666667	0
bin	0.1	0
bin	0.13333333333333	0
bin	0.16666666666667	0
bin	0.2	0
bin	0.23333333333333	0
bin	0.26666666666667	0
bin	0.3	0
bin	0.33333333333333	0
bin	0.36666666666667	0
bin	0.4	0
bin	0.43333333333333	0
bin	0.46666666666667	0
bin	0.5	0
statistic LoRaNetworkTest.loRaNodes[13].LoRaNic.radio minSNIR:histogram
field count 82
field mean 4.4550233606079
field stddev 6.0180485177384
field min 1.0313643581112
field max 25.594615040511
field sum 365.31191556984
field sqrsum 4561.0426626821
attr source minSNIR
attr title "Min SNIR, histogram"
bin	-inf	0
[...]
scalar LoRaNetworkTest.gwRouter[0].networkLayer.arp initiatedARPResolution:count 0
attr title "ARP initiated resolutions, count"
scalar LoRaNetworkTest.gwRouter[0].lo0.lo droppedPkBitError:count 0
attr interpolationmode none
attr source dropPkBitError
attr title "packets dropped/bit error, count"
scalar LoRaNetworkTest.gwRouter[0].lo0.lo droppedPkBitError:sum(packetBytes) 0
attr interpolationmode none
attr source dropPkBitError
attr title "packets dropped/bit error, sum(packetBytes)"
scalar LoRaNetworkTest.gwRouter[0].lo0.lo rcvdPkFromHL:count 0
attr interpolationmode none
attr source packetReceivedFromUpper
attr title "packets received from higher layer, count"
scalar LoRaNetworkTest.gwRouter[0].lo0.lo rcvdPkFromHL:sum(packetBytes) 0
attr interpolationmode none
attr source packetReceivedFromUpper
attr title "packets received from higher layer, sum(packetBytes)"
scalar LoRaNetworkTest.gwRouter[0].lo0.lo passedUpPk:count 0
attr interpolationmode none
attr source packetSentToUpper
attr title "packets passed to higher layer, count"
scalar LoRaNetworkTest.gwRouter[0].lo0.lo passedUpPk:sum(packetBytes) 0
attr interpolationmode none
attr source packetSentToUpper
attr title "packets passed to higher layer, sum(packetBytes)"
scalar LoRaNetworkTest.gwRouter[0].eth[0].mac "simulated time" 194000.37542242
scalar LoRaNetworkTest.gwRouter[0].eth[0].mac full-duplex 1
scalar LoRaNetworkTest.gwRouter[0].eth[0].mac "frames/sec sent" 0.0077164799126826
scalar LoRaNetworkTest.gwRouter[0].eth[0].mac "frames/sec rcvd" 0.10395340708021
scalar LoRaNetworkTest.gwRouter[0].eth[0].mac "bits/sec sent" 3.9508377152935
scalar LoRaNetworkTest.gwRouter[0].eth[0].mac "bits/sec rcvd" 53.224144425066
scalar LoRaNetworkTest.gwRouter[0].eth[0].mac "rx channel idle (%)" 99.999994012284
scalar LoRaNetworkTest.gwRouter[0].eth[0].mac "rx channel utilization (%)" 5.9877162478199e-006
scalar LoRaNetworkTest.gwRouter[0].eth[0].mac rxPkFromHL:count 830
attr interpolationmode none
attr source rxPkFromHL
attr title "packet bytes from higher layer, count"
scalar LoRaNetworkTest.gwRouter[0].eth[0].mac rxPkFromHL:sum(packetBytes) 53120
attr interpolationmode none
attr source rxPkFromHL
attr title "packet bytes from higher layer, sum(packetBytes)"
scalar LoRaNetworkTest.gwRouter[0].eth[0].mac rxPausePkUnits:count 0
attr interpolationmode none
attr title "pause units received, count"
scalar LoRaNetworkTest.gwRouter[0].eth[0].mac rxPausePkUnits:sum 0
attr interpolationmode none
attr title "pause units received, sum"
scalar LoRaNetworkTest.gwRouter[0].eth[0].mac txPausePkUnits:count 0
attr interpolationmode none
attr title "pause units sent, count"
scalar LoRaNetworkTest.gwRouter[0].eth[0].mac txPausePkUnits:sum 0
attr interpolationmode none
attr title "pause units sent, sum"
scalar LoRaNetworkTest.gwRouter[0].eth[0].mac txPk:count 830
attr interpolationmode none
attr source txPk
attr title "packets transmitted, count"
scalar LoRaNetworkTest.gwRouter[0].eth[0].mac txPk:sum(packetBytes) 53120
attr interpolationmode none
attr source txPk
attr title "packets transmitted, sum(packetBytes)"
scalar LoRaNetworkTest.gwRouter[0].eth[0].mac droppedPkNotForUs:count 0
attr interpolationmode none
attr source dropPkNotForUs
attr title "packets dropped/not for us, count"
scalar LoRaNetworkTest.gwRouter[0].eth[0].mac droppedPkNotForUs:sum(packetBytes) 0
attr interpolationmode none
attr source dropPkNotForUs
attr title "packets dropped/not for us, sum(packetBytes)"
scalar LoRaNetworkTest.gwRouter[0].eth[0].mac droppedPkBitError:count 0
attr interpolationmode none
attr source dropPkBitError
attr title "packets dropped/bit error, count"
scalar LoRaNetworkTest.gwRouter[0].eth[0].mac droppedPkBitError:sum(packetBytes) 0
attr interpolationmode none
attr source dropPkBitError
attr title "packets dropped/bit error, sum(packetBytes)"
scalar LoRaNetworkTest.gwRouter[0].eth[0].mac droppedPkIfaceDown:count 0
attr interpolationmode none
attr source dropPkIfaceDown
attr title "packets dropped/interface down, count"
scalar LoRaNetworkTest.gwRouter[0].eth[0].mac droppedPkIfaceDown:sum(packetBytes) 0
attr interpolationmode none
attr source dropPkIfaceDown
attr title "packets dropped/interface down, sum(packetBytes)"
scalar LoRaNetworkTest.gwRouter[0].eth[0].mac rxPkOk:count 11139
attr interpolationmode none
attr source rxPkOk
attr title "packets received OK, count"
scalar LoRaNetworkTest.gwRouter[0].eth[0].mac rxPkOk:sum(packetBytes) 712896
attr interpolationmode none
attr source rxPkOk
attr title "packets received OK, sum(packetBytes)"
scalar LoRaNetworkTest.gwRouter[0].eth[0].mac passedUpPk:count 11139
attr interpolationmode none
attr source packetSentToUpper
attr title "packets passed to higher layer, count"
scalar LoRaNetworkTest.gwRouter[0].eth[0].mac passedUpPk:sum(packetBytes) 712896
attr interpolationmode none
attr source packetSentToUpper
attr title "packets passed to higher layer, sum(packetBytes)"
scalar LoRaNetworkTest.gwRouter[0].eth[0].encap pauseSent:count 0
attr title "pause sent, count"
scalar LoRaNetworkTest.gwRouter[0].eth[0].encap pauseSent:sum 0
attr title "pause sent, sum"
scalar LoRaNetworkTest.gwRouter[0].eth[0].encap decapPk:count 11139
attr interpolationmode none
attr source decapPk
attr title "packets decapsulated, count"
scalar LoRaNetworkTest.gwRouter[0].eth[0].encap decapPk:sum(packetBytes) 394364
attr interpolationmode none
attr source decapPk
attr title "packets decapsulated, sum(packetBytes)"
scalar LoRaNetworkTest.gwRouter[0].eth[0].encap encapPk:count 830
attr interpolationmode none
attr source encapPk
attr title "packets encapsulated, count"
scalar LoRaNetworkTest.gwRouter[0].eth[0].encap encapPk:sum(packetBytes) 23240
attr interpolationmode none
attr source encapPk
attr title "packets encapsulated, sum(packetBytes)"
scalar LoRaNetworkTest.gwRouter[0].ppp[0].queue queueLength:max nan
attr interpolationmode sample-hold
attr title "queue length, max"
scalar LoRaNetworkTest.gwRouter[0].ppp[0].queue queueLength:timeavg nan
attr interpolationmode sample-hold
attr title "queue length, timeavg"
statistic LoRaNetworkTest.gwRouter[0].ppp[0].queue queueingTime:histogram
field count 10309
field mean 0
field stddev 0
field min 0
field max 0
field sum 0
field sqrsum 0
attr interpolationmode none
attr title "queueing time, histogram"
bin	-inf	0
bin	-0.5	0
bin	-0.46666666666667	0
bin	-0.43333333333333	0
bin	-0.4	0
bin	-0.36666666666667	0
bin	-0.33333333333333	0
bin	-0.3	0
bin	-0.26666666666667	0
bin	-0.23333333333333	0
bin	-0.2	0
bin	-0.16666666666667	0
bin	-0.13333333333333	0
bin	-0.1	0
bin	-0.066666666666667	0
bin	-0.033333333333333	0
bin	-6.9388939039072e-018	10309
bin	0.033333333333333	0
bin	0.066666666666667	0
bin	0.1	0
bin	0.13333333333333	0
bin	0.16666666666667	0
bin	0.2	0
bin	0.23333333333333	0
bin	0.26666666666667	0
bin	0.3	0
bin	0.33333333333333	0
bin	0.36666666666667	0
bin	0.4	0
bin	0.43333333333333	0
bin	0.46666666666667	0
bin	0.5	0
scalar LoRaNetworkTest.gwRouter[0].ppp[0].queue dropPk:count 0
attr interpolationmode none
attr source dropPkByQueue
attr title "dropped packets, count"
scalar LoRaNetworkTest.gwRouter[0].ppp[0].queue dropPk:sum(packetBytes) 0
attr interpolationmode none
attr source dropPkByQueue
attr title "dropped packets, sum(packetBytes)"
scalar LoRaNetworkTest.gwRouter[0].ppp[0].queue rcvdPk:count 10309
attr interpolationmode none
attr title "received packets, count"
scalar LoRaNetworkTest.gwRouter[0].ppp[0].queue rcvdPk:sum(packetBytes) 371124
attr interpolationmode none
attr title "received packets, sum(packetBytes)"
scalar LoRaNetworkTest.gwRouter[0].ppp[0].ppp droppedPkBitError:count 0
attr interpolationmode none
attr source dropPkBitError
attr title "packets dropped/bit error, count"
scalar LoRaNetworkTest.gwRouter[0].ppp[0].ppp droppedPkBitError:sum(packetBytes) 0
attr interpolationmode none
attr source dropPkBitError
attr title "packets dropped/bit error, sum(packetBytes)"
scalar LoRaNetworkTest.gwRouter[0].ppp[0].ppp droppedPkIfaceDown:count 0
attr interpolationmode none
attr source dropPkIfaceDown
attr title "packets dropped/interface down, count"
scalar LoRaNetworkTest.gwRouter[0].ppp[0].ppp droppedPkIfaceDown:sum(packetBytes) 0
attr interpolationmode none
attr source dropPkIfaceDown
attr title "packets dropped/interface down, sum(packetBytes)"
scalar LoRaNetworkTest.gwRouter[0].ppp[0].ppp rxPkOk:count 0
attr interpolationmode none
attr source rxPkOk
attr title "packets received OK, count"
scalar LoRaNetworkTest.gwRouter[0].ppp[0].ppp rxPkOk:sum(packetBytes) 0
attr interpolationmode none
attr source rxPkOk
attr title "packets received OK, sum(packetBytes)"
scalar LoRaNetworkTest.gwRouter[0].ppp[0].ppp txState:timeavg 3.2963714073944e-008
attr interpolationmode sample-hold
attr title "tx state, timeavg"
scalar LoRaNetworkTest.gwRouter[0].ppp[0].ppp rcvdPkFromHL:count 10309
attr interpolationmode none
attr source packetReceivedFromUpper
attr title "packets received from higher layer, count"
scalar LoRaNetworkTest.gwRouter[0].ppp[0].ppp rcvdPkFromHL:sum(packetBytes) 371124
attr interpolationmode none
attr source packetReceivedFromUpper
attr title "packets received from higher layer, sum(packetBytes)"
scalar LoRaNetworkTest.gwRouter[0].ppp[0].ppp passedUpPk:count 0
attr interpolationmode none
attr source packetSentToUpper
attr title "packets passed to higher layer, count"
scalar LoRaNetworkTest.gwRouter[0].ppp[0].ppp passedUpPk:sum(packetBytes) 0
attr interpolationmode none
attr source packetSentToUpper
attr title "packets passed to higher layer, sum(packetBytes)"
scalar LoRaNetworkTest.gwRouter[0].ppp[0].ppp txPk:count 10309
attr interpolationmode none
attr source packetSentToLower
attr title "packets transmitted, count"
scalar LoRaNetworkTest.gwRouter[0].ppp[0].ppp txPk:sum(packetBytes) 443287
attr interpolationmode none
attr source packetSentToLower
attr title "packets transmitted, sum(packetBytes)"
scalar LoRaNetworkTest.nsRouter.networkLayer.arp sentReply:count 0
attr title "ARP replies sent, count"
scalar LoRaNetworkTest.nsRouter.networkLayer.arp sentReq:count 830
attr title "ARP request sent, count"
scalar LoRaNetworkTest.nsRouter.networkLayer.arp failedARPResolution:count 0
attr title "ARP failed resolutions, count"
scalar LoRaNetworkTest.nsRouter.networkLayer.arp completedARPResolution:count 830
attr title "ARP completed resolutions, count"
scalar LoRaNetworkTest.nsRouter.networkLayer.arp initiatedARPResolution:count 830
attr title "ARP initiated resolutions, count"
scalar LoRaNetworkTest.nsRouter.lo0.lo droppedPkBitError:count 0
attr interpolationmode none
attr source dropPkBitError
attr title "packets dropped/bit error, count"
scalar LoRaNetworkTest.nsRouter.lo0.lo droppedPkBitError:sum(packetBytes) 0
attr interpolationmode none
attr source dropPkBitError
attr title "packets dropped/bit error, sum(packetBytes)"
scalar LoRaNetworkTest.nsRouter.lo0.lo rcvdPkFromHL:count 0
attr interpolationmode none
attr source packetReceivedFromUpper
attr title "packets received from higher layer, count"
scalar LoRaNetworkTest.nsRouter.lo0.lo rcvdPkFromHL:sum(packetBytes) 0
attr interpolationmode none
attr source packetReceivedFromUpper
attr title "packets received from higher layer, sum(packetBytes)"
scalar LoRaNetworkTest.nsRouter.lo0.lo passedUpPk:count 0
attr interpolationmode none
attr source packetSentToUpper
attr title "packets passed to higher layer, count"
scalar LoRaNetworkTest.nsRouter.lo0.lo passedUpPk:sum(packetBytes) 0
attr interpolationmode none
attr source packetSentToUpper
attr title "packets passed to higher layer, sum(packetBytes)"
scalar LoRaNetworkTest.nsRouter.eth[0].mac "simulated time" 194000.37542242
scalar LoRaNetworkTest.nsRouter.eth[0].mac full-duplex 1
scalar LoRaNetworkTest.nsRouter.eth[0].mac "frames/sec sent" 0.10395340708021
scalar LoRaNetworkTest.nsRouter.eth[0].mac "frames/sec rcvd" 0.0077164799126826
scalar LoRaNetworkTest.nsRouter.eth[0].mac "bits/sec sent" 53.224144425066
scalar LoRaNetworkTest.nsRouter.eth[0].mac "bits/sec rcvd" 3.9508377152935
scalar LoRaNetworkTest.nsRouter.eth[0].mac "rx channel idle (%)" 99.999999555531
scalar LoRaNetworkTest.nsRouter.eth[0].mac "rx channel utilization (%)" 4.4446924297052e-007
scalar LoRaNetworkTest.nsRouter.eth[0].mac rxPkFromHL:count 11139
attr interpolationmode none
attr source rxPkFromHL
attr title "packet bytes from higher layer, count"
scalar LoRaNetworkTest.nsRouter.eth[0].mac rxPkFromHL:sum(packetBytes) 712896
attr interpolationmode none
attr source rxPkFromHL
attr title "packet bytes from higher layer, sum(packetBytes)"
scalar LoRaNetworkTest.nsRouter.eth[0].mac rxPausePkUnits:count 0
attr interpolationmode none
attr title "pause units received, count"
scalar LoRaNetworkTest.nsRouter.eth[0].mac rxPausePkUnits:sum 0
attr interpolationmode none
attr title "pause units received, sum"
scalar LoRaNetworkTest.nsRouter.eth[0].mac txPausePkUnits:count 0
attr interpolationmode none
attr title "pause units sent, count"
scalar LoRaNetworkTest.nsRouter.eth[0].mac txPausePkUnits:sum 0
attr interpolationmode none
attr title "pause units sent, sum"
scalar LoRaNetworkTest.nsRouter.eth[0].mac txPk:count 11139
attr interpolationmode none
attr source txPk
attr title "packets transmitted, count"
scalar LoRaNetworkTest.nsRouter.eth[0].mac txPk:sum(packetBytes) 712896
attr interpolationmode none
attr source txPk
attr title "packets transmitted, sum(packetBytes)"
scalar LoRaNetworkTest.nsRouter.eth[0].mac droppedPkNotForUs:count 0
attr interpolationmode none
attr source dropPkNotForUs
attr title "packets dropped/not for us, count"
scalar LoRaNetworkTest.nsRouter.eth[0].mac droppedPkNotForUs:sum(packetBytes) 0
attr interpolationmode none
attr source dropPkNotForUs
attr title "packets dropped/not for us, sum(packetBytes)"
scalar LoRaNetworkTest.nsRouter.eth[0].mac droppedPkBitError:count 0
attr interpolationmode none
attr source dropPkBitError
attr title "packets dropped/bit error, count"
scalar LoRaNetworkTest.nsRouter.eth[0].mac droppedPkBitError:sum(packetBytes) 0
attr interpolationmode none
attr source dropPkBitError
attr title "packets dropped/bit error, sum(packetBytes)"
scalar LoRaNetworkTest.nsRouter.eth[0].mac droppedPkIfaceDown:count 0
attr interpolationmode none
attr source dropPkIfaceDown
attr title "packets dropped/interface down, count"
scalar LoRaNetworkTest.nsRouter.eth[0].mac droppedPkIfaceDown:sum(packetBytes) 0
attr interpolationmode none
attr source dropPkIfaceDown
attr title "packets dropped/interface down, sum(packetBytes)"
scalar LoRaNetworkTest.nsRouter.eth[0].mac rxPkOk:count 830
attr interpolationmode none
attr source rxPkOk
attr title "packets received OK, count"
scalar LoRaNetworkTest.nsRouter.eth[0].mac rxPkOk:sum(packetBytes) 53120
attr interpolationmode none
attr source rxPkOk
attr title "packets received OK, sum(packetBytes)"
scalar LoRaNetworkTest.nsRouter.eth[0].mac passedUpPk:count 830
attr interpolationmode none
attr source packetSentToUpper
attr title "packets passed to higher layer, count"
scalar LoRaNetworkTest.nsRouter.eth[0].mac passedUpPk:sum(packetBytes) 53120
attr interpolationmode none
attr source packetSentToUpper
attr title "packets passed to higher layer, sum(packetBytes)"
scalar LoRaNetworkTest.nsRouter.eth[0].encap pauseSent:count 0
attr title "pause sent, count"
scalar LoRaNetworkTest.nsRouter.eth[0].encap pauseSent:sum 0
attr title "pause sent, sum"
scalar LoRaNetworkTest.nsRouter.eth[0].encap decapPk:count 830
attr interpolationmode none
attr source decapPk
attr title "packets decapsulated, count"
scalar LoRaNetworkTest.nsRouter.eth[0].encap decapPk:sum(packetBytes) 23240
attr interpolationmode none
attr source decapPk
attr title "packets decapsulated, sum(packetBytes)"
scalar LoRaNetworkTest.nsRouter.eth[0].encap encapPk:count 11139
attr interpolationmode none
attr source encapPk
attr title "packets encapsulated, count"
scalar LoRaNetworkTest.nsRouter.eth[0].encap encapPk:sum(packetBytes) 394364
attr interpolationmode none
attr source encapPk
attr title "packets encapsulated, sum(packetBytes)"
scalar LoRaNetworkTest.nsRouter.ppp[0].queue queueLength:max nan
attr interpolationmode sample-hold
attr title "queue length, max"
scalar LoRaNetworkTest.nsRouter.ppp[0].queue queueLength:timeavg nan
attr interpolationmode sample-hold
attr title "queue length, timeavg"
statistic LoRaNetworkTest.nsRouter.ppp[0].queue queueingTime:histogram
field count 0
field mean nan
field stddev nan
field min nan
field max nan
field sum 0
field sqrsum 0
attr interpolationmode none
attr title "queueing time, histogram"
bin	-inf	0
bin	-0.5	0
bin	-0.46666666666667	0
bin	-0.43333333333333	0
bin	-0.4	0
bin	-0.36666666666667	0
bin	-0.33333333333333	0
bin	-0.3	0
bin	-0.26666666666667	0
bin	-0.23333333333333	0
bin	-0.2	0
bin	-0.16666666666667	0
bin	-0.13333333333333	0
bin	-0.1	0
bin	-0.066666666666667	0
bin	-0.033333333333333	0
bin	-6.9388939039072e-018	0
bin	0.033333333333333	0
bin	0.066666666666667	0
bin	0.1	0
bin	0.13333333333333	0
bin	0.16666666666667	0
bin	0.2	0
bin	0.23333333333333	0
bin	0.26666666666667	0
bin	0.3	0
bin	0.33333333333333	0
bin	0.36666666666667	0
bin	0.4	0
bin	0.43333333333333	0
bin	0.46666666666667	0
bin	0.5	0
scalar LoRaNetworkTest.nsRouter.ppp[0].queue dropPk:count 0
attr interpolationmode none
attr source dropPkByQueue
attr title "dropped packets, count"
scalar LoRaNetworkTest.nsRouter.ppp[0].queue dropPk:sum(packetBytes) 0
attr interpolationmode none
attr source dropPkByQueue
attr title "dropped packets, sum(packetBytes)"
scalar LoRaNetworkTest.nsRouter.ppp[0].queue rcvdPk:count 0
attr interpolationmode none
attr title "received packets, count"
scalar LoRaNetworkTest.nsRouter.ppp[0].queue rcvdPk:sum(packetBytes) 0
attr interpolationmode none
attr title "received packets, sum(packetBytes)"
scalar LoRaNetworkTest.nsRouter.ppp[0].ppp droppedPkBitError:count 0
attr interpolationmode none
attr source dropPkBitError
attr title "packets dropped/bit error, count"
scalar LoRaNetworkTest.nsRouter.ppp[0].ppp droppedPkBitError:sum(packetBytes) 0
attr interpolationmode none
attr source dropPkBitError
attr title "packets dropped/bit error, sum(packetBytes)"
scalar LoRaNetworkTest.nsRouter.ppp[0].ppp droppedPkIfaceDown:count 0
attr interpolationmode none
attr source dropPkIfaceDown
attr title "packets dropped/interface down, count"
scalar LoRaNetworkTest.nsRouter.ppp[0].ppp droppedPkIfaceDown:sum(packetBytes) 0
attr interpolationmode none
attr source dropPkIfaceDown
attr title "packets dropped/interface down, sum(packetBytes)"
scalar LoRaNetworkTest.nsRouter.ppp[0].ppp rxPkOk:count 10309
attr interpolationmode none
attr source rxPkOk
attr title "packets received OK, count"
scalar LoRaNetworkTest.nsRouter.ppp[0].ppp rxPkOk:sum(packetBytes) 443287
attr interpolationmode none
attr source rxPkOk
attr title "packets received OK, sum(packetBytes)"
scalar LoRaNetworkTest.nsRouter.ppp[0].ppp txState:timeavg nan
attr interpolationmode sample-hold
attr title "tx state, timeavg"
scalar LoRaNetworkTest.nsRouter.ppp[0].ppp rcvdPkFromHL:count 0
attr interpolationmode none
attr source packetReceivedFromUpper
attr title "packets received from higher layer, count"
scalar LoRaNetworkTest.nsRouter.ppp[0].ppp rcvdPkFromHL:sum(packetBytes) 0
attr interpolationmode none
attr source packetReceivedFromUpper
attr title "packets received from higher layer, sum(packetBytes)"
scalar LoRaNetworkTest.nsRouter.ppp[0].ppp passedUpPk:count 10309
attr interpolationmode none
attr source packetSentToUpper
attr title "packets passed to higher layer, count"
scalar LoRaNetworkTest.nsRouter.ppp[0].ppp passedUpPk:sum(packetBytes) 371124
attr interpolationmode none
attr source packetSentToUpper
attr title "packets passed to higher layer, sum(packetBytes)"
scalar LoRaNetworkTest.nsRouter.ppp[0].ppp txPk:count 0
attr interpolationmode none
attr source packetSentToLower
attr title "packets transmitted, count"
scalar LoRaNetworkTest.nsRouter.ppp[0].ppp txPk:sum(packetBytes) 0
attr interpolationmode none
attr source packetSentToLower
attr title "packets transmitted, sum(packetBytes)"

